@<TRIPOS>MOLECULE
Molecule from ChemDoodle Web Components
   27    28     0     0     0
SMALL
NO_CHARGES

@<TRIPOS>ATOM
      1 C1         28.3350  -28.1290  -20.1130 C.ar      1 UNK         0.0000
      2 C2         27.9150  -29.0280  -19.1730 C.ar      1 UNK         0.0000
      3 C3         28.8180  -29.5880  -18.2800 C.ar      1 UNK         0.0000
      4 C4         30.1520  -29.2480  -18.3230 C.ar      1 UNK         0.0000
      5 C5         30.6030  -28.3350  -19.2720 C.ar      1 UNK         0.0000
      6 C6         29.6840  -27.7700  -20.1750 C.ar      1 UNK         0.0000
      7 N1         31.8390  -27.8050  -19.5650 N.pl3     1 UNK         0.0000
      8 C7         31.7340  -26.9310  -20.6140 C.2       1 UNK         0.0000
      9 C8         30.4590  -26.8660  -21.0280 C.2       1 UNK         0.0000
     10 C9         29.9270  -26.0250  -22.1600 C.3       1 UNK         0.0000
     11 C10        30.0050  -26.8190  -23.4650 C.3       1 UNK         0.0000
     12 C11        31.0640  -26.2220  -24.3550 C.2       1 UNK         0.0000
     13 O1         31.6860  -26.9890  -25.2640 O.3       1 UNK         0.0000
     14 O2         31.3530  -25.0530  -24.2500 O.2       1 UNK         0.0000
     15 N2         28.7050  -26.7660  -24.1480 N.3       1 UNK         0.0000
     16 H1         27.6280  -27.6970  -20.8050 H         1 UNK         0.0000
     17 H2         26.8730  -29.3050  -19.1270 H         1 UNK         0.0000
     18 H3         28.4710  -30.2970  -17.5430 H         1 UNK         0.0000
     19 H4         30.8470  -29.6890  -17.6230 H         1 UNK         0.0000
     20 H5         32.6620  -28.0180  -19.0980 H         1 UNK         0.0000
     21 H6         32.5550  -26.3780  -21.0440 H         1 UNK         0.0000
     22 H7         28.8910  -25.7580  -21.9580 H         1 UNK         0.0000
     23 H8         30.5260  -25.1180  -22.2510 H         1 UNK         0.0000
     24 H9         30.2560  -27.8570  -23.2460 H         1 UNK         0.0000
     25 H10        32.5310  -26.6660  -25.6050 H         1 UNK         0.0000
     26 H11        28.2420  -27.6630  -24.1170 H         1 UNK         0.0000
     27 H12        28.1190  -26.0440  -23.7560 H         1 UNK         0.0000
@<TRIPOS>BOND
     1    1    2 ar
     2    1    6 ar
     3    1   16 1
     4    2    3 ar
     5    2   17 1
     6    3    4 ar
     7    3   18 1
     8    4    5 ar
     9    4   19 1
    10    5    6 ar
    11    5    7 1
    12    6    9 1
    13    7    8 1
    14    7   20 1
    15    8    9 2
    16    8   21 1
    17    9   10 1
    18   10   11 1
    19   10   22 1
    20   10   23 1
    21   11   12 1
    22   11   15 1
    23   11   24 1
    24   12   13 1
    25   12   14 2
    26   13   25 1
    27   15   26 1
    28   15   27 1
