@<TRIPOS>MOLECULE
Molecule from ChemDoodle Web Components
   27    28     0     0     0
SMALL
NO_CHARGES

@<TRIPOS>ATOM
      1 C1         31.3810  -26.2900  -20.6700 C.ar      1 UNK         0.0000
      2 C2         32.0500  -27.0500  -19.7520 C.ar      1 UNK         0.0000
      3 C3         31.4530  -28.1760  -19.1990 C.ar      1 UNK         0.0000
      4 C4         30.1790  -28.5470  -19.5660 C.ar      1 UNK         0.0000
      5 C5         29.4790  -27.7880  -20.5000 C.ar      1 UNK         0.0000
      6 C6         30.0880  -26.6490  -21.0570 C.ar      1 UNK         0.0000
      7 N1         28.2250  -27.8920  -21.0590 N.pl3     1 UNK         0.0000
      8 C7         28.0230  -26.8670  -21.9420 C.2       1 UNK         0.0000
      9 C8         29.1090  -26.0800  -21.9870 C.2       1 UNK         0.0000
     10 C9         29.2860  -24.8440  -22.8300 C.3       1 UNK         0.0000
     11 C10        29.6860  -25.2480  -24.2500 C.3       1 UNK         0.0000
     12 C11        31.1680  -25.5140  -24.2990 C.2       1 UNK         0.0000
     13 O1         31.6360  -26.5860  -24.9570 O.3       1 UNK         0.0000
     14 O2         31.9360  -24.7620  -23.7450 O.2       1 UNK         0.0000
     15 N2         29.3540  -24.1590  -25.1800 N.3       1 UNK         0.0000
     16 H1         31.8510  -25.4170  -21.0960 H         1 UNK         0.0000
     17 H2         33.0490  -26.7720  -19.4530 H         1 UNK         0.0000
     18 H3         31.9940  -28.7660  -18.4750 H         1 UNK         0.0000
     19 H4         29.7230  -29.4240  -19.1320 H         1 UNK         0.0000
     20 H5         27.5810  -28.5890  -20.8570 H         1 UNK         0.0000
     21 H6         27.1210  -26.7130  -22.5170 H         1 UNK         0.0000
     22 H7         28.3500  -24.2870  -22.8600 H         1 UNK         0.0000
     23 H8         30.0680  -24.2180  -22.3970 H         1 UNK         0.0000
     24 H9         29.1450  -26.1490  -24.5390 H         1 UNK         0.0000
     25 H10        32.2520  -27.1590  -24.4810 H         1 UNK         0.0000
     26 H11        28.5010  -24.3600  -25.6820 H         1 UNK         0.0000
     27 H12        29.2870  -23.2770  -24.6950 H         1 UNK         0.0000
@<TRIPOS>BOND
     1    1    2 ar
     2    1    6 ar
     3    1   16 1
     4    2    3 ar
     5    2   17 1
     6    3    4 ar
     7    3   18 1
     8    4    5 ar
     9    4   19 1
    10    5    6 ar
    11    5    7 1
    12    6    9 1
    13    7    8 1
    14    7   20 1
    15    8    9 2
    16    8   21 1
    17    9   10 1
    18   10   11 1
    19   10   22 1
    20   10   23 1
    21   11   12 1
    22   11   15 1
    23   11   24 1
    24   12   13 1
    25   12   14 2
    26   13   25 1
    27   15   26 1
    28   15   27 1
