@<TRIPOS>MOLECULE
Molecule from ChemDoodle Web Components
   27    28     0     0     0
SMALL
NO_CHARGES

@<TRIPOS>ATOM
      1 C1         29.7870  -27.4730  -22.2160 C.ar      1 UNK         0.0000
      2 C2         30.3720  -26.9700  -21.0870 C.ar      1 UNK         0.0000
      3 C3         30.7580  -25.6380  -21.0270 C.ar      1 UNK         0.0000
      4 C4         30.5610  -24.8000  -22.1010 C.ar      1 UNK         0.0000
      5 C5         29.9670  -25.2900  -23.2610 C.ar      1 UNK         0.0000
      6 C6         29.5780  -26.6400  -23.3170 C.ar      1 UNK         0.0000
      7 N1         29.6430  -24.7220  -24.4720 N.pl3     1 UNK         0.0000
      8 C7         29.0650  -25.6590  -25.2860 C.2       1 UNK         0.0000
      9 C8         28.9970  -26.8380  -24.6480 C.2       1 UNK         0.0000
     10 C9         28.4350  -28.1240  -25.1980 C.3       1 UNK         0.0000
     11 C10        29.5800  -29.0190  -25.6740 C.3       1 UNK         0.0000
     12 C11        29.3220  -29.4550  -27.0930 C.2       1 UNK         0.0000
     13 O1         28.8770  -28.5680  -27.9970 O.3       1 UNK         0.0000
     14 O2         29.5150  -30.6030  -27.4180 O.2       1 UNK         0.0000
     15 N2         29.6690  -30.2020  -24.8070 N.3       1 UNK         0.0000
     16 H1         29.4890  -28.5090  -22.2560 H         1 UNK         0.0000
     17 H2         30.5340  -27.6150  -20.2370 H         1 UNK         0.0000
     18 H3         31.2180  -25.2550  -20.1280 H         1 UNK         0.0000
     19 H4         30.8640  -23.7650  -22.0440 H         1 UNK         0.0000
     20 H5         29.7990  -23.7960  -24.7140 H         1 UNK         0.0000
     21 H6         28.7170  -25.4770  -26.2910 H         1 UNK         0.0000
     22 H7         27.8710  -28.6370  -24.4200 H         1 UNK         0.0000
     23 H8         27.7760  -27.9010  -26.0380 H         1 UNK         0.0000
     24 H9         30.5180  -28.4650  -25.6290 H         1 UNK         0.0000
     25 H10        28.1690  -28.8600  -28.5870 H         1 UNK         0.0000
     26 H11        30.5480  -30.6810  -24.9380 H         1 UNK         0.0000
     27 H12        29.5350  -29.9520  -23.8390 H         1 UNK         0.0000
@<TRIPOS>BOND
     1    1    2 ar
     2    1    6 ar
     3    1   16 1
     4    2    3 ar
     5    2   17 1
     6    3    4 ar
     7    3   18 1
     8    4    5 ar
     9    4   19 1
    10    5    6 ar
    11    5    7 1
    12    6    9 1
    13    7    8 1
    14    7   20 1
    15    8    9 2
    16    8   21 1
    17    9   10 1
    18   10   11 1
    19   10   22 1
    20   10   23 1
    21   11   12 1
    22   11   15 1
    23   11   24 1
    24   12   13 1
    25   12   14 2
    26   13   25 1
    27   15   26 1
    28   15   27 1
