@<TRIPOS>MOLECULE
Molecule from ChemDoodle Web Components
   27    28     0     0     0
SMALL
NO_CHARGES

@<TRIPOS>ATOM
      1 C1         30.1840  -33.4240  -27.5750 C.ar      1 UNK         0.0000
      2 C2         30.9560  -34.4890  -27.9490 C.ar      1 UNK         0.0000
      3 C3         31.6110  -34.4890  -29.1720 C.ar      1 UNK         0.0000
      4 C4         31.4970  -33.4190  -30.0310 C.ar      1 UNK         0.0000
      5 C5         30.7160  -32.3240  -29.6720 C.ar      1 UNK         0.0000
      6 C6         30.0540  -32.3290  -28.4310 C.ar      1 UNK         0.0000
      7 N1         30.4090  -31.1340  -30.2920 N.pl3     1 UNK         0.0000
      8 C7         29.5820  -30.3930  -29.4930 C.2       1 UNK         0.0000
      9 C8         29.3290  -31.0570  -28.3550 C.2       1 UNK         0.0000
     10 C9         28.4600  -30.5870  -27.2170 C.3       1 UNK         0.0000
     11 C10        28.9520  -29.2230  -26.7290 C.3       1 UNK         0.0000
     12 C11        29.3270  -29.3160  -25.2730 C.2       1 UNK         0.0000
     13 O1         29.7620  -30.4790  -24.7650 O.3       1 UNK         0.0000
     14 O2         29.2380  -28.3420  -24.5620 O.2       1 UNK         0.0000
     15 N2         27.8820  -28.2300  -26.8960 N.3       1 UNK         0.0000
     16 H1         29.6770  -33.4300  -26.6220 H         1 UNK         0.0000
     17 H2         31.0550  -35.3360  -27.2870 H         1 UNK         0.0000
     18 H3         32.2180  -35.3370  -29.4540 H         1 UNK         0.0000
     19 H4         32.0110  -33.4280  -30.9810 H         1 UNK         0.0000
     20 H5         30.7300  -30.8620  -31.1660 H         1 UNK         0.0000
     21 H6         29.1910  -29.4170  -29.7420 H         1 UNK         0.0000
     22 H7         27.4290  -30.5020  -27.5580 H         1 UNK         0.0000
     23 H8         28.5140  -31.3060  -26.3980 H         1 UNK         0.0000
     24 H9         29.8220  -28.9200  -27.3110 H         1 UNK         0.0000
     25 H10        29.9250  -31.1980  -25.3910 H         1 UNK         0.0000
     26 H11        28.2540  -27.3490  -27.2210 H         1 UNK         0.0000
     27 H12        27.1660  -28.5700  -27.5200 H         1 UNK         0.0000
@<TRIPOS>BOND
     1    1    2 ar
     2    1    6 ar
     3    1   16 1
     4    2    3 ar
     5    2   17 1
     6    3    4 ar
     7    3   18 1
     8    4    5 ar
     9    4   19 1
    10    5    6 ar
    11    5    7 1
    12    6    9 1
    13    7    8 1
    14    7   20 1
    15    8    9 2
    16    8   21 1
    17    9   10 1
    18   10   11 1
    19   10   22 1
    20   10   23 1
    21   11   12 1
    22   11   15 1
    23   11   24 1
    24   12   13 1
    25   12   14 2
    26   13   25 1
    27   15   26 1
    28   15   27 1
