@<TRIPOS>MOLECULE
Molecule from ChemDoodle Web Components
   27    28     0     0     0
SMALL
NO_CHARGES

@<TRIPOS>ATOM
      1 C1         29.3800  -29.7200  -25.5620 C.ar      1 UNK         0.0000
      2 C2         29.5470  -30.9670  -26.0960 C.ar      1 UNK         0.0000
      3 C3         29.0490  -31.2660  -27.3570 C.ar      1 UNK         0.0000
      4 C4         28.3790  -30.3140  -28.0920 C.ar      1 UNK         0.0000
      5 C5         28.1970  -29.0370  -27.5680 C.ar      1 UNK         0.0000
      6 C6         28.7030  -28.7390  -26.2900 C.ar      1 UNK         0.0000
      7 N1         27.5880  -27.8970  -28.0400 N.pl3     1 UNK         0.0000
      8 C7         27.6910  -26.8960  -27.1120 C.2       1 UNK         0.0000
      9 C8         28.3530  -27.3400  -26.0320 C.2       1 UNK         0.0000
     10 C9         28.6710  -26.5510  -24.7890 C.3       1 UNK         0.0000
     11 C10        29.6140  -25.4000  -25.1420 C.3       1 UNK         0.0000
     12 C11        30.9970  -25.7080  -24.6310 C.2       1 UNK         0.0000
     13 O1         31.6770  -26.7550  -25.1240 O.3       1 UNK         0.0000
     14 O2         31.4950  -25.0130  -23.7760 O.2       1 UNK         0.0000
     15 N2         29.1280  -24.1600  -24.5200 N.3       1 UNK         0.0000
     16 H1         29.7700  -29.4940  -24.5810 H         1 UNK         0.0000
     17 H2         30.0690  -31.7250  -25.5320 H         1 UNK         0.0000
     18 H3         29.1890  -32.2560  -27.7660 H         1 UNK         0.0000
     19 H4         27.9960  -30.5560  -29.0730 H         1 UNK         0.0000
     20 H5         27.1510  -27.8140  -28.9020 H         1 UNK         0.0000
     21 H6         27.2970  -25.8980  -27.2310 H         1 UNK         0.0000
     22 H7         27.7500  -26.1500  -24.3670 H         1 UNK         0.0000
     23 H8         29.1520  -27.2020  -24.0580 H         1 UNK         0.0000
     24 H9         29.6450  -25.2730  -26.2240 H         1 UNK         0.0000
     25 H10        32.6380  -26.7420  -25.0220 H         1 UNK         0.0000
     26 H11        29.8960  -23.6030  -24.1750 H         1 UNK         0.0000
     27 H12        28.5590  -23.6310  -25.1630 H         1 UNK         0.0000
@<TRIPOS>BOND
     1    1    2 ar
     2    1    6 ar
     3    1   16 1
     4    2    3 ar
     5    2   17 1
     6    3    4 ar
     7    3   18 1
     8    4    5 ar
     9    4   19 1
    10    5    6 ar
    11    5    7 1
    12    6    9 1
    13    7    8 1
    14    7   20 1
    15    8    9 2
    16    8   21 1
    17    9   10 1
    18   10   11 1
    19   10   22 1
    20   10   23 1
    21   11   12 1
    22   11   15 1
    23   11   24 1
    24   12   13 1
    25   12   14 2
    26   13   25 1
    27   15   26 1
    28   15   27 1
