@<TRIPOS>MOLECULE
Molecule from ChemDoodle Web Components
   27    28     0     0     0
SMALL
NO_CHARGES

@<TRIPOS>ATOM
      1 C1         30.6270  -28.4900  -19.3350 C.ar      1 UNK         0.0000
      2 C2         30.2820  -29.2030  -18.2210 C.ar      1 UNK         0.0000
      3 C3         28.9540  -29.5230  -17.9720 C.ar      1 UNK         0.0000
      4 C4         27.9610  -29.1270  -18.8400 C.ar      1 UNK         0.0000
      5 C5         28.2890  -28.3990  -19.9800 C.ar      1 UNK         0.0000
      6 C6         29.6350  -28.0780  -20.2290 C.ar      1 UNK         0.0000
      7 N1         27.5480  -27.8720  -21.0130 N.pl3     1 UNK         0.0000
      8 C7         28.3730  -27.2330  -21.8990 C.2       1 UNK         0.0000
      9 C8         29.6460  -27.3210  -21.4830 C.2       1 UNK         0.0000
     10 C9         30.8550  -26.7460  -22.1730 C.3       1 UNK         0.0000
     11 C10        30.4120  -25.6720  -23.1680 C.3       1 UNK         0.0000
     12 C11        30.5520  -26.1990  -24.5720 C.2       1 UNK         0.0000
     13 O1         31.7220  -26.7150  -24.9820 O.3       1 UNK         0.0000
     14 O2         29.6110  -26.1580  -25.3300 O.2       1 UNK         0.0000
     15 N2         31.2550  -24.4790  -23.0070 N.3       1 UNK         0.0000
     16 H1         31.6610  -28.2450  -19.5240 H         1 UNK         0.0000
     17 H2         31.0490  -29.5200  -17.5310 H         1 UNK         0.0000
     18 H3         28.6970  -30.0880  -17.0880 H         1 UNK         0.0000
     19 H4         26.9310  -29.3810  -18.6370 H         1 UNK         0.0000
     20 H5         26.5840  -27.9420  -21.1000 H         1 UNK         0.0000
     21 H6         28.0470  -26.7320  -22.7990 H         1 UNK         0.0000
     22 H7         31.5200  -26.3030  -21.4320 H         1 UNK         0.0000
     23 H8         31.3810  -27.5390  -22.7060 H         1 UNK         0.0000
     24 H9         29.3720  -25.4070  -22.9800 H         1 UNK         0.0000
     25 H10        31.7870  -27.6790  -25.0200 H         1 UNK         0.0000
     26 H11        31.2780  -23.9350  -23.8580 H         1 UNK         0.0000
     27 H12        30.9450  -23.9180  -22.2280 H         1 UNK         0.0000
@<TRIPOS>BOND
     1    1    2 ar
     2    1    6 ar
     3    1   16 1
     4    2    3 ar
     5    2   17 1
     6    3    4 ar
     7    3   18 1
     8    4    5 ar
     9    4   19 1
    10    5    6 ar
    11    5    7 1
    12    6    9 1
    13    7    8 1
    14    7   20 1
    15    8    9 2
    16    8   21 1
    17    9   10 1
    18   10   11 1
    19   10   22 1
    20   10   23 1
    21   11   12 1
    22   11   15 1
    23   11   24 1
    24   12   13 1
    25   12   14 2
    26   13   25 1
    27   15   26 1
    28   15   27 1
