@<TRIPOS>MOLECULE
Molecule from ChemDoodle Web Components
   27    28     0     0     0
SMALL
NO_CHARGES

@<TRIPOS>ATOM
      1 C1         40.8740  -21.8500  -10.8830 C.ar      1 UNK         0.0000
      2 C2         41.4240  -21.7820   -9.6330 C.ar      1 UNK         0.0000
      3 C3         40.9740  -22.6170   -8.6190 C.ar      1 UNK         0.0000
      4 C4         39.9680  -23.5280   -8.8530 C.ar      1 UNK         0.0000
      5 C5         39.3930  -23.6140  -10.1170 C.ar      1 UNK         0.0000
      6 C6         39.8520  -22.7660  -11.1420 C.ar      1 UNK         0.0000
      7 N1         38.3970  -24.3980  -10.6540 N.pl3     1 UNK         0.0000
      8 C7         38.2120  -24.0770  -11.9720 C.2       1 UNK         0.0000
      9 C8         39.0590  -23.0990  -12.3280 C.2       1 UNK         0.0000
     10 C9         39.1690  -22.4600  -13.6880 C.3       1 UNK         0.0000
     11 C10        37.9560  -21.5590  -13.9280 C.3       1 UNK         0.0000
     12 C11        36.9340  -22.3010  -14.7510 C.2       1 UNK         0.0000
     13 O1         37.3000  -23.3780  -15.4620 O.3       1 UNK         0.0000
     14 O2         35.7850  -21.9250  -14.7700 O.2       1 UNK         0.0000
     15 N2         38.3800  -20.3500  -14.6490 N.3       1 UNK         0.0000
     16 H1         41.2280  -21.1980  -11.6670 H         1 UNK         0.0000
     17 H2         42.2130  -21.0730   -9.4340 H         1 UNK         0.0000
     18 H3         41.4190  -22.5530   -7.6370 H         1 UNK         0.0000
     19 H4         39.6260  -24.1730   -8.0580 H         1 UNK         0.0000
     20 H5         37.9000  -25.0770  -10.1710 H         1 UNK         0.0000
     21 H6         37.4900  -24.5420  -12.6270 H         1 UNK         0.0000
     22 H7         40.0800  -21.8640  -13.7380 H         1 UNK         0.0000
     23 H8         39.2010  -23.2370  -14.4530 H         1 UNK         0.0000
     24 H9         37.5180  -21.2760  -12.9720 H         1 UNK         0.0000
     25 H10        36.6370  -23.7600  -16.0530 H         1 UNK         0.0000
     26 H11        39.3410  -20.4260  -14.9490 H         1 UNK         0.0000
     27 H12        37.7720  -20.1640  -15.4320 H         1 UNK         0.0000
@<TRIPOS>BOND
     1    1    2 ar
     2    1    6 ar
     3    1   16 1
     4    2    3 ar
     5    2   17 1
     6    3    4 ar
     7    3   18 1
     8    4    5 ar
     9    4   19 1
    10    5    6 ar
    11    5    7 1
    12    6    9 1
    13    7    8 1
    14    7   20 1
    15    8    9 2
    16    8   21 1
    17    9   10 1
    18   10   11 1
    19   10   22 1
    20   10   23 1
    21   11   12 1
    22   11   15 1
    23   11   24 1
    24   12   13 1
    25   12   14 2
    26   13   25 1
    27   15   26 1
    28   15   27 1
