@<TRIPOS>MOLECULE
Molecule from ChemDoodle Web Components
   27    28     0     0     0
SMALL
NO_CHARGES

@<TRIPOS>ATOM
      1 C1         28.9090  -28.0120  -20.3830 C.ar      1 UNK         0.0000
      2 C2         29.1690  -28.8120  -19.3060 C.ar      1 UNK         0.0000
      3 C3         30.4460  -28.8700  -18.7640 C.ar      1 UNK         0.0000
      4 C4         31.4720  -28.1240  -19.2980 C.ar      1 UNK         0.0000
      5 C5         31.2290  -27.3010  -20.3950 C.ar      1 UNK         0.0000
      6 C6         29.9350  -27.2460  -20.9410 C.ar      1 UNK         0.0000
      7 N1         32.0210  -26.4550  -21.1380 N.pl3     1 UNK         0.0000
      8 C7         31.2770  -25.8720  -22.1280 C.2       1 UNK         0.0000
      9 C8         30.0090  -26.3070  -22.0640 C.2       1 UNK         0.0000
     10 C9         28.8780  -25.9100  -22.9770 C.3       1 UNK         0.0000
     11 C10        29.4410  -25.5130  -24.3430 C.3       1 UNK         0.0000
     12 C11        29.0050  -24.1100  -24.6780 C.2       1 UNK         0.0000
     13 O1         28.6310  -23.8050  -25.9310 O.3       1 UNK         0.0000
     14 O2         28.9910  -23.2600  -23.8190 O.2       1 UNK         0.0000
     15 N2         28.9390  -26.4390  -25.3670 N.3       1 UNK         0.0000
     16 H1         27.9140  -27.9710  -20.8000 H         1 UNK         0.0000
     17 H2         28.3760  -29.4050  -18.8760 H         1 UNK         0.0000
     18 H3         30.6360  -29.5070  -17.9120 H         1 UNK         0.0000
     19 H4         32.4610  -28.1750  -18.8680 H         1 UNK         0.0000
     20 H5         32.9650  -26.2960  -20.9840 H         1 UNK         0.0000
     21 H6         31.6550  -25.1660  -22.8530 H         1 UNK         0.0000
     22 H7         28.1950  -26.7500  -23.0960 H         1 UNK         0.0000
     23 H8         28.3430  -25.0630  -22.5460 H         1 UNK         0.0000
     24 H9         30.5300  -25.5590  -24.3160 H         1 UNK         0.0000
     25 H10        28.7870  -22.8980  -26.2260 H         1 UNK         0.0000
     26 H11        29.6790  -27.0350  -25.7100 H         1 UNK         0.0000
     27 H12        28.1690  -26.9870  -25.0140 H         1 UNK         0.0000
@<TRIPOS>BOND
     1    1    2 ar
     2    1    6 ar
     3    1   16 1
     4    2    3 ar
     5    2   17 1
     6    3    4 ar
     7    3   18 1
     8    4    5 ar
     9    4   19 1
    10    5    6 ar
    11    5    7 1
    12    6    9 1
    13    7    8 1
    14    7   20 1
    15    8    9 2
    16    8   21 1
    17    9   10 1
    18   10   11 1
    19   10   22 1
    20   10   23 1
    21   11   12 1
    22   11   15 1
    23   11   24 1
    24   12   13 1
    25   12   14 2
    26   13   25 1
    27   15   26 1
    28   15   27 1
