@<TRIPOS>MOLECULE
Molecule from ChemDoodle Web Components
   27    28     0     0     0
SMALL
NO_CHARGES

@<TRIPOS>ATOM
      1 C1         30.1570  -32.4520  -29.6430 C.ar      1 UNK         0.0000
      2 C2         31.2000  -33.2750  -29.9650 C.ar      1 UNK         0.0000
      3 C3         31.7200  -34.1550  -29.0260 C.ar      1 UNK         0.0000
      4 C4         31.1970  -34.2140  -27.7530 C.ar      1 UNK         0.0000
      5 C5         30.1350  -33.3860  -27.4030 C.ar      1 UNK         0.0000
      6 C6         29.6110  -32.4960  -28.3580 C.ar      1 UNK         0.0000
      7 N1         29.4110  -33.2110  -26.2450 N.pl3     1 UNK         0.0000
      8 C7         28.4550  -32.2500  -26.4340 C.2       1 UNK         0.0000
      9 C8         28.5230  -31.7780  -27.6890 C.2       1 UNK         0.0000
     10 C9         27.6500  -30.7090  -28.2930 C.3       1 UNK         0.0000
     11 C10        28.4770  -29.4420  -28.5180 C.3       1 UNK         0.0000
     12 C11        27.9710  -28.3450  -27.6170 C.2       1 UNK         0.0000
     13 O1         27.6570  -27.1460  -28.1320 O.3       1 UNK         0.0000
     14 O2         27.8470  -28.5450  -26.4310 O.2       1 UNK         0.0000
     15 N2         28.3530  -29.0200  -29.9200 N.3       1 UNK         0.0000
     16 H1         29.7570  -31.7710  -30.3780 H         1 UNK         0.0000
     17 H2         31.6220  -33.2400  -30.9590 H         1 UNK         0.0000
     18 H3         32.5440  -34.7990  -29.2950 H         1 UNK         0.0000
     19 H4         31.6090  -34.9020  -27.0290 H         1 UNK         0.0000
     20 H5         29.5570  -33.6970  -25.4180 H         1 UNK         0.0000
     21 H6         27.7520  -31.9200  -25.6850 H         1 UNK         0.0000
     22 H7         27.2540  -31.0580  -29.2460 H         1 UNK         0.0000
     23 H8         26.8250  -30.4880  -27.6150 H         1 UNK         0.0000
     24 H9         29.5240  -29.6450  -28.2920 H         1 UNK         0.0000
     25 H10        27.5080  -26.4250  -27.5050 H         1 UNK         0.0000
     26 H11        28.6130  -29.7670  -30.5470 H         1 UNK         0.0000
     27 H12        27.4200  -28.6910  -30.1180 H         1 UNK         0.0000
@<TRIPOS>BOND
     1    1    2 ar
     2    1    6 ar
     3    1   16 1
     4    2    3 ar
     5    2   17 1
     6    3    4 ar
     7    3   18 1
     8    4    5 ar
     9    4   19 1
    10    5    6 ar
    11    5    7 1
    12    6    9 1
    13    7    8 1
    14    7   20 1
    15    8    9 2
    16    8   21 1
    17    9   10 1
    18   10   11 1
    19   10   22 1
    20   10   23 1
    21   11   12 1
    22   11   15 1
    23   11   24 1
    24   12   13 1
    25   12   14 2
    26   13   25 1
    27   15   26 1
    28   15   27 1
