@<TRIPOS>MOLECULE
Molecule from ChemDoodle Web Components
   27    28     0     0     0
SMALL
NO_CHARGES

@<TRIPOS>ATOM
      1 C1         29.2530  -31.1960  -25.7060 C.ar      1 UNK         0.0000
      2 C2         29.3790  -29.8690  -25.4020 C.ar      1 UNK         0.0000
      3 C3         29.5410  -28.9280  -26.4090 C.ar      1 UNK         0.0000
      4 C4         29.5790  -29.3120  -27.7310 C.ar      1 UNK         0.0000
      5 C5         29.4520  -30.6570  -28.0640 C.ar      1 UNK         0.0000
      6 C6         29.2880  -31.6080  -27.0400 C.ar      1 UNK         0.0000
      7 N1         29.4500  -31.3420  -29.2580 N.pl3     1 UNK         0.0000
      8 C7         29.2910  -32.6810  -29.0260 C.2       1 UNK         0.0000
      9 C8         29.1870  -32.9080  -27.7080 C.2       1 UNK         0.0000
     10 C9         29.0070  -34.2470  -27.0400 C.3       1 UNK         0.0000
     11 C10        30.3720  -34.7930  -26.6160 C.3       1 UNK         0.0000
     12 C11        30.4280  -36.2730  -26.8900 C.2       1 UNK         0.0000
     13 O1         31.2030  -37.0660  -26.1330 O.3       1 UNK         0.0000
     14 O2         29.7760  -36.7470  -27.7900 O.2       1 UNK         0.0000
     15 N2         30.5690  -34.5530  -25.1800 N.3       1 UNK         0.0000
     16 H1         29.1260  -31.9230  -24.9190 H         1 UNK         0.0000
     17 H2         29.3520  -29.5520  -24.3700 H         1 UNK         0.0000
     18 H3         29.6390  -27.8830  -26.1530 H         1 UNK         0.0000
     19 H4         29.7050  -28.5720  -28.5070 H         1 UNK         0.0000
     20 H5         29.5470  -30.9360  -30.1340 H         1 UNK         0.0000
     21 H6         29.2550  -33.4430  -29.7920 H         1 UNK         0.0000
     22 H7         28.3720  -34.1330  -26.1620 H         1 UNK         0.0000
     23 H8         28.5410  -34.9410  -27.7400 H         1 UNK         0.0000
     24 H9         31.1570  -34.2880  -27.1790 H         1 UNK         0.0000
     25 H10        31.7690  -36.6320  -25.4800 H         1 UNK         0.0000
     26 H11        29.6840  -34.4930  -24.6980 H         1 UNK         0.0000
     27 H12        31.1550  -35.2660  -24.7710 H         1 UNK         0.0000
@<TRIPOS>BOND
     1    1    2 ar
     2    1    6 ar
     3    1   16 1
     4    2    3 ar
     5    2   17 1
     6    3    4 ar
     7    3   18 1
     8    4    5 ar
     9    4   19 1
    10    5    6 ar
    11    5    7 1
    12    6    9 1
    13    7    8 1
    14    7   20 1
    15    8    9 2
    16    8   21 1
    17    9   10 1
    18   10   11 1
    19   10   22 1
    20   10   23 1
    21   11   12 1
    22   11   15 1
    23   11   24 1
    24   12   13 1
    25   12   14 2
    26   13   25 1
    27   15   26 1
    28   15   27 1
