@<TRIPOS>MOLECULE
Molecule from ChemDoodle Web Components
   15    15     0     0     0
SMALL
NO_CHARGES

@<TRIPOS>ATOM
      1 N1         30.0560  -31.2150  -29.9910 N.pl3     1 UNK         0.0000
      2 C1         29.5540  -30.2110  -29.2450 C.2       1 UNK         0.0000
      3 C2         29.2700  -30.6810  -28.0040 C.2       1 UNK         0.0000
      4 C3         29.6020  -32.0350  -27.9720 C.2       1 UNK         0.0000
      5 C4         30.0910  -32.3610  -29.2250 C.2       1 UNK         0.0000
      6 C5         30.5490  -33.6320  -29.6410 C.2       1 UNK         0.0000
      7 C6         31.9250  -34.1030  -29.2460 C.3       1 UNK         0.0000
      8 O1         29.8330  -34.3440  -30.3160 O.2       1 UNK         0.0000
      9 H1         30.3430  -31.1440  -30.9150 H         1 UNK         0.0000
     10 H2         29.4050  -29.1940  -29.5790 H         1 UNK         0.0000
     11 H3         28.8590  -30.1060  -27.1860 H         1 UNK         0.0000
     12 H4         29.4990  -32.7030  -27.1290 H         1 UNK         0.0000
     13 H5         31.8380  -34.9040  -28.5120 H         1 UNK         0.0000
     14 H6         32.4480  -34.4740  -30.1280 H         1 UNK         0.0000
     15 H7         32.4830  -33.2720  -28.8150 H         1 UNK         0.0000
@<TRIPOS>BOND
     1    1    2 1
     2    1    5 1
     3    1    9 1
     4    2    3 2
     5    2   10 1
     6    3    4 1
     7    3   11 1
     8    4    5 2
     9    4   12 1
    10    5    6 1
    11    6    7 1
    12    6    8 2
    13    7   13 1
    14    7   14 1
    15    7   15 1
