@<TRIPOS>MOLECULE
Molecule from ChemDoodle Web Components
   15    15     0     0     0
SMALL
NO_CHARGES

@<TRIPOS>ATOM
      1 N1         39.1760  -23.7550  -15.4760 N.pl3     1 UNK         0.0000
      2 C1         40.4380  -23.2900  -15.5860 C.2       1 UNK         0.0000
      3 C2         40.4990  -22.0450  -15.0490 C.2       1 UNK         0.0000
      4 C3         39.2240  -21.7140  -14.5880 C.2       1 UNK         0.0000
      5 C4         38.4020  -22.7920  -14.8650 C.2       1 UNK         0.0000
      6 C5         37.0240  -22.8910  -14.5690 C.2       1 UNK         0.0000
      7 C6         36.3280  -21.7740  -13.8340 C.3       1 UNK         0.0000
      8 O1         36.3990  -23.8770  -14.9070 O.2       1 UNK         0.0000
      9 H1         38.8660  -24.6220  -15.7790 H         1 UNK         0.0000
     10 H2         41.2670  -23.8240  -16.0260 H         1 UNK         0.0000
     11 H3         41.3790  -21.4230  -14.9890 H         1 UNK         0.0000
     12 H4         38.9340  -20.7920  -14.1070 H         1 UNK         0.0000
     13 H5         35.3790  -22.1340  -13.4390 H         1 UNK         0.0000
     14 H6         36.9580  -21.4330  -13.0120 H         1 UNK         0.0000
     15 H7         36.1470  -20.9470  -14.5200 H         1 UNK         0.0000
@<TRIPOS>BOND
     1    1    2 1
     2    1    5 1
     3    1    9 1
     4    2    3 2
     5    2   10 1
     6    3    4 1
     7    3   11 1
     8    4    5 2
     9    4   12 1
    10    5    6 1
    11    6    7 1
    12    6    8 2
    13    7   13 1
    14    7   14 1
    15    7   15 1
