@<TRIPOS>MOLECULE
Molecule from ChemDoodle Web Components
   15    15     0     0     0
SMALL
NO_CHARGES

@<TRIPOS>ATOM
      1 N1         30.7090  -26.9570  -22.7980 N.pl3     1 UNK         0.0000
      2 C1         29.5990  -26.2200  -23.0110 C.2       1 UNK         0.0000
      3 C2         29.4030  -25.3980  -21.9490 C.2       1 UNK         0.0000
      4 C3         30.4280  -25.6310  -21.0310 C.2       1 UNK         0.0000
      5 C4         31.2390  -26.6140  -21.5730 C.2       1 UNK         0.0000
      6 C5         32.4010  -27.1600  -20.9820 C.2       1 UNK         0.0000
      7 C6         32.3710  -27.6200  -19.5470 C.3       1 UNK         0.0000
      8 O1         33.4230  -27.2580  -21.6300 O.2       1 UNK         0.0000
      9 H1         31.0720  -27.6190  -23.4060 H         1 UNK         0.0000
     10 H2         28.9700  -26.2720  -23.8870 H         1 UNK         0.0000
     11 H3         28.5960  -24.6890  -21.8360 H         1 UNK         0.0000
     12 H4         30.5630  -25.1390  -20.0800 H         1 UNK         0.0000
     13 H5         32.0370  -26.8020  -18.9100 H         1 UNK         0.0000
     14 H6         31.6830  -28.4610  -19.4500 H         1 UNK         0.0000
     15 H7         33.3710  -27.9320  -19.2450 H         1 UNK         0.0000
@<TRIPOS>BOND
     1    1    2 1
     2    1    5 1
     3    1    9 1
     4    2    3 2
     5    2   10 1
     6    3    4 1
     7    3   11 1
     8    4    5 2
     9    4   12 1
    10    5    6 1
    11    6    7 1
    12    6    8 2
    13    7   13 1
    14    7   14 1
    15    7   15 1
