@<TRIPOS>MOLECULE
Molecule from ChemDoodle Web Components
   15    15     0     0     0
SMALL
NO_CHARGES

@<TRIPOS>ATOM
      1 N1         39.0640  -20.9600  -14.6700 N.pl3     1 UNK         0.0000
      2 C1         40.3400  -21.2770  -14.9700 C.2       1 UNK         0.0000
      3 C2         40.4320  -22.6180  -15.1530 C.2       1 UNK         0.0000
      4 C3         39.1640  -23.1660  -14.9550 C.2       1 UNK         0.0000
      5 C4         38.3140  -22.1170  -14.6500 C.2       1 UNK         0.0000
      6 C5         36.9310  -22.2130  -14.3730 C.2       1 UNK         0.0000
      7 C6         36.4610  -22.8820  -13.1070 C.3       1 UNK         0.0000
      8 O1         36.1220  -21.7570  -15.1560 O.2       1 UNK         0.0000
      9 H1         38.7290  -20.0670  -14.4960 H         1 UNK         0.0000
     10 H2         41.1570  -20.5760  -15.0550 H         1 UNK         0.0000
     11 H3         41.3280  -23.1640  -15.4070 H         1 UNK         0.0000
     12 H4         38.8960  -24.2100  -15.0280 H         1 UNK         0.0000
     13 H5         35.6970  -23.6210  -13.3490 H         1 UNK         0.0000
     14 H6         37.3030  -23.3740  -12.6220 H         1 UNK         0.0000
     15 H7         36.0420  -22.1330  -12.4360 H         1 UNK         0.0000
@<TRIPOS>BOND
     1    1    2 1
     2    1    5 1
     3    1    9 1
     4    2    3 2
     5    2   10 1
     6    3    4 1
     7    3   11 1
     8    4    5 2
     9    4   12 1
    10    5    6 1
    11    6    7 1
    12    6    8 2
    13    7   13 1
    14    7   14 1
    15    7   15 1
