@<TRIPOS>MOLECULE
Molecule from ChemDoodle Web Components
   15    15     0     0     0
SMALL
NO_CHARGES

@<TRIPOS>ATOM
      1 N1         40.4630  -21.5780  -13.2870 N.pl3     1 UNK         0.0000
      2 C1         40.7920  -21.5820  -14.5950 C.2       1 UNK         0.0000
      3 C2         40.0010  -22.4710  -15.2470 C.2       1 UNK         0.0000
      4 C3         39.1450  -23.0510  -14.3100 C.2       1 UNK         0.0000
      5 C4         39.4460  -22.4860  -13.0830 C.2       1 UNK         0.0000
      6 C5         38.8220  -22.7800  -11.8500 C.2       1 UNK         0.0000
      7 C6         37.9230  -23.9830  -11.7280 C.3       1 UNK         0.0000
      8 O1         39.0100  -22.0630  -10.8870 O.2       1 UNK         0.0000
      9 H1         40.8760  -21.0280  -12.6020 H         1 UNK         0.0000
     10 H2         41.5590  -20.9740  -15.0510 H         1 UNK         0.0000
     11 H3         40.0290  -22.6900  -16.3040 H         1 UNK         0.0000
     12 H4         38.3900  -23.7980  -14.5050 H         1 UNK         0.0000
     13 H5         37.4120  -24.1520  -12.6760 H         1 UNK         0.0000
     14 H6         38.5210  -24.8600  -11.4770 H         1 UNK         0.0000
     15 H7         37.1870  -23.8090  -10.9440 H         1 UNK         0.0000
@<TRIPOS>BOND
     1    1    2 1
     2    1    5 1
     3    1    9 1
     4    2    3 2
     5    2   10 1
     6    3    4 1
     7    3   11 1
     8    4    5 2
     9    4   12 1
    10    5    6 1
    11    6    7 1
    12    6    8 2
    13    7   13 1
    14    7   14 1
    15    7   15 1
