@<TRIPOS>MOLECULE
Molecule from ChemDoodle Web Components
   15    15     0     0     0
SMALL
NO_CHARGES

@<TRIPOS>ATOM
      1 N1         30.5780  -26.9940  -23.8210 N.pl3     1 UNK         0.0000
      2 C1         30.0700  -26.2880  -24.8530 C.2       1 UNK         0.0000
      3 C2         30.3240  -24.9700  -24.6550 C.2       1 UNK         0.0000
      4 C3         31.0140  -24.8420  -23.4490 C.2       1 UNK         0.0000
      5 C4         31.1650  -26.1180  -22.9330 C.2       1 UNK         0.0000
      6 C5         31.8080  -26.4610  -21.7220 C.2       1 UNK         0.0000
      7 C6         31.0120  -27.0540  -20.5880 C.3       1 UNK         0.0000
      8 O1         33.0020  -26.2770  -21.5950 O.2       1 UNK         0.0000
      9 H1         30.5360  -27.9570  -23.7210 H         1 UNK         0.0000
     10 H2         29.5490  -26.7050  -25.7020 H         1 UNK         0.0000
     11 H3         30.0410  -24.1630  -25.3150 H         1 UNK         0.0000
     12 H4         31.3650  -23.9230  -23.0030 H         1 UNK         0.0000
     13 H5         29.9560  -26.8240  -20.7260 H         1 UNK         0.0000
     14 H6         31.1500  -28.1350  -20.5740 H         1 UNK         0.0000
     15 H7         31.3560  -26.6320  -19.6440 H         1 UNK         0.0000
@<TRIPOS>BOND
     1    1    2 1
     2    1    5 1
     3    1    9 1
     4    2    3 2
     5    2   10 1
     6    3    4 1
     7    3   11 1
     8    4    5 2
     9    4   12 1
    10    5    6 1
    11    6    7 1
    12    6    8 2
    13    7   13 1
    14    7   14 1
    15    7   15 1
