@<TRIPOS>MOLECULE
Molecule from ChemDoodle Web Components
   15    15     0     0     0
SMALL
NO_CHARGES

@<TRIPOS>ATOM
      1 N1         36.7480  -23.5520  -12.7860 N.pl3     1 UNK         0.0000
      2 C1         36.4080  -22.7290  -13.7980 C.2       1 UNK         0.0000
      3 C2         37.3970  -21.8170  -13.9780 C.2       1 UNK         0.0000
      4 C3         38.3940  -22.0750  -13.0370 C.2       1 UNK         0.0000
      5 C4         37.9750  -23.1640  -12.2920 C.2       1 UNK         0.0000
      6 C5         38.6780  -23.7700  -11.2270 C.2       1 UNK         0.0000
      7 C6         39.7800  -23.0180  -10.5270 C.3       1 UNK         0.0000
      8 O1         38.3940  -24.8980  -10.8760 O.2       1 UNK         0.0000
      9 H1         36.2160  -24.2940  -12.4580 H         1 UNK         0.0000
     10 H2         35.4980  -22.7870  -14.3770 H         1 UNK         0.0000
     11 H3         37.4080  -21.0310  -14.7180 H         1 UNK         0.0000
     12 H4         39.3190  -21.5300  -12.9140 H         1 UNK         0.0000
     13 H5         39.9980  -23.4970   -9.5720 H         1 UNK         0.0000
     14 H6         40.6760  -23.0230  -11.1490 H         1 UNK         0.0000
     15 H7         39.4640  -21.9890  -10.3540 H         1 UNK         0.0000
@<TRIPOS>BOND
     1    1    2 1
     2    1    5 1
     3    1    9 1
     4    2    3 2
     5    2   10 1
     6    3    4 1
     7    3   11 1
     8    4    5 2
     9    4   12 1
    10    5    6 1
    11    6    7 1
    12    6    8 2
    13    7   13 1
    14    7   14 1
    15    7   15 1
