@<TRIPOS>MOLECULE
Molecule from ChemDoodle Web Components
   15    15     0     0     0
SMALL
NO_CHARGES

@<TRIPOS>ATOM
      1 N1         37.6330  -23.2890  -14.9080 N.pl3     1 UNK         0.0000
      2 C1         36.4190  -22.8680  -14.4980 C.2       1 UNK         0.0000
      3 C2         36.5220  -21.5900  -14.0510 C.2       1 UNK         0.0000
      4 C3         37.8540  -21.1970  -14.1800 C.2       1 UNK         0.0000
      5 C4         38.5430  -22.2710  -14.7160 C.2       1 UNK         0.0000
      6 C5         39.9230  -22.3150  -15.0160 C.2       1 UNK         0.0000
      7 C6         40.5160  -23.5450  -15.6540 C.3       1 UNK         0.0000
      8 O1         40.6310  -21.3620  -14.7600 O.2       1 UNK         0.0000
      9 H1         37.8330  -24.1640  -15.2750 H         1 UNK         0.0000
     10 H2         35.5100  -23.4500  -14.5260 H         1 UNK         0.0000
     11 H3         35.7140  -20.9870  -13.6640 H         1 UNK         0.0000
     12 H4         38.2690  -20.2360  -13.9140 H         1 UNK         0.0000
     13 H5         41.2010  -24.0230  -14.9550 H         1 UNK         0.0000
     14 H6         39.7180  -24.2400  -15.9140 H         1 UNK         0.0000
     15 H7         41.0570  -23.2600  -16.5570 H         1 UNK         0.0000
@<TRIPOS>BOND
     1    1    2 1
     2    1    5 1
     3    1    9 1
     4    2    3 2
     5    2   10 1
     6    3    4 1
     7    3   11 1
     8    4    5 2
     9    4   12 1
    10    5    6 1
    11    6    7 1
    12    6    8 2
    13    7   13 1
    14    7   14 1
    15    7   15 1
