@<TRIPOS>MOLECULE
Molecule from ChemDoodle Web Components
   15    15     0     0     0
SMALL
NO_CHARGES

@<TRIPOS>ATOM
      1 N1         30.0270  -27.3780  -22.8350 N.pl3     1 UNK         0.0000
      2 C1         29.7600  -28.0340  -21.6880 C.2       1 UNK         0.0000
      3 C2         30.2130  -27.2980  -20.6410 C.2       1 UNK         0.0000
      4 C3         30.7920  -26.1360  -21.1530 C.2       1 UNK         0.0000
      5 C4         30.6720  -26.1980  -22.5310 C.2       1 UNK         0.0000
      6 C5         31.1240  -25.2290  -23.4550 C.2       1 UNK         0.0000
      7 C6         30.4450  -25.0910  -24.7930 C.3       1 UNK         0.0000
      8 O1         32.0580  -24.5070  -23.1700 O.2       1 UNK         0.0000
      9 H1         29.8030  -27.6860  -23.7270 H         1 UNK         0.0000
     10 H2         29.2610  -28.9890  -21.6120 H         1 UNK         0.0000
     11 H3         30.1380  -27.5650  -19.5980 H         1 UNK         0.0000
     12 H4         31.2460  -25.3390  -20.5830 H         1 UNK         0.0000
     13 H5         29.9450  -24.1240  -24.8490 H         1 UNK         0.0000
     14 H6         31.1900  -25.1610  -25.5870 H         1 UNK         0.0000
     15 H7         29.7110  -25.8880  -24.9120 H         1 UNK         0.0000
@<TRIPOS>BOND
     1    1    2 1
     2    1    5 1
     3    1    9 1
     4    2    3 2
     5    2   10 1
     6    3    4 1
     7    3   11 1
     8    4    5 2
     9    4   12 1
    10    5    6 1
    11    6    7 1
    12    6    8 2
    13    7   13 1
    14    7   14 1
    15    7   15 1
