@<TRIPOS>MOLECULE
Molecule from ChemDoodle Web Components
   15    15     0     0     0
SMALL
NO_CHARGES

@<TRIPOS>ATOM
      1 N1         29.8970  -33.2800  -28.7090 N.pl3     1 UNK         0.0000
      2 C1         30.4850  -32.5640  -29.6880 C.2       1 UNK         0.0000
      3 C2         31.6180  -33.1990  -30.0830 C.2       1 UNK         0.0000
      4 C3         31.7480  -34.3580  -29.3160 C.2       1 UNK         0.0000
      5 C4         30.6650  -34.3970  -28.4550 C.2       1 UNK         0.0000
      6 C5         30.3920  -35.4000  -27.4980 C.2       1 UNK         0.0000
      7 C6         30.7170  -35.1630  -26.0450 C.3       1 UNK         0.0000
      8 O1         29.8970  -36.4530  -27.8450 O.2       1 UNK         0.0000
      9 H1         29.0710  -33.0470  -28.2560 H         1 UNK         0.0000
     10 H2         30.1130  -31.6360  -30.0970 H         1 UNK         0.0000
     11 H3         32.2970  -32.8660  -30.8530 H         1 UNK         0.0000
     12 H4         32.5420  -35.0870  -29.3830 H         1 UNK         0.0000
     13 H5         31.7130  -34.7300  -25.9620 H         1 UNK         0.0000
     14 H6         29.9850  -34.4770  -25.6170 H         1 UNK         0.0000
     15 H7         30.6840  -36.1100  -25.5070 H         1 UNK         0.0000
@<TRIPOS>BOND
     1    1    2 1
     2    1    5 1
     3    1    9 1
     4    2    3 2
     5    2   10 1
     6    3    4 1
     7    3   11 1
     8    4    5 2
     9    4   12 1
    10    5    6 1
    11    6    7 1
    12    6    8 2
    13    7   13 1
    14    7   14 1
    15    7   15 1
