@<TRIPOS>MOLECULE
14079
   15    15     0     0     0
SMALL
NO_CHARGES

@<TRIPOS>ATOM
      1 O1         39.2070  -28.6990  -24.2790 O.2       1 UNK         0.0000
      2 N1         39.0470  -30.6410  -21.7210 N.pl3     1 UNK         0.0000
      3 C1         39.7720  -29.6030  -22.2670 C.2       1 UNK         0.0000
      4 C2         41.0890  -29.7680  -21.8740 C.2       1 UNK         0.0000
      5 C3         39.2640  -28.5610  -23.0740 C.2       1 UNK         0.0000
      6 C4         39.8830  -31.4310  -21.0180 C.2       1 UNK         0.0000
      7 C5         41.1390  -30.9220  -21.0900 C.2       1 UNK         0.0000
      8 C6         38.7930  -27.2780  -22.4390 C.3       1 UNK         0.0000
      9 H1         38.0930  -30.7800  -21.8270 H         1 UNK         0.0000
     10 H2         41.9200  -29.1250  -22.1250 H         1 UNK         0.0000
     11 H3         39.6000  -32.3240  -20.4800 H         1 UNK         0.0000
     12 H4         42.0200  -31.3370  -20.6230 H         1 UNK         0.0000
     13 H5         39.3400  -27.1090  -21.5120 H         1 UNK         0.0000
     14 H6         38.9700  -26.4480  -23.1230 H         1 UNK         0.0000
     15 H7         37.7270  -27.3500  -22.2240 H         1 UNK         0.0000
@<TRIPOS>BOND
     1    1    5 2
     2    2    3 1
     3    2    6 1
     4    2    9 1
     5    3    4 2
     6    3    5 1
     7    4    7 1
     8    4   10 1
     9    5    8 1
    10    6    7 2
    11    6   11 1
    12    7   12 1
    13    8   13 1
    14    8   14 1
    15    8   15 1
