@<TRIPOS>MOLECULE
14079
   15    15     0     0     0
SMALL
NO_CHARGES

@<TRIPOS>ATOM
      1 O1         31.3780  -23.2800  -24.3780 O.2       1 UNK         0.0000
      2 N1         29.6930  -26.2130  -25.5000 N.pl3     1 UNK         0.0000
      3 C1         30.6370  -25.3430  -24.9990 C.2       1 UNK         0.0000
      4 C2         31.8190  -26.0490  -24.8620 C.2       1 UNK         0.0000
      5 C3         30.4330  -23.9820  -24.6770 C.2       1 UNK         0.0000
      6 C4         30.2680  -27.4200  -25.6790 C.2       1 UNK         0.0000
      7 C5         31.5680  -27.3520  -25.2940 C.2       1 UNK         0.0000
      8 C6         29.0420  -23.4010  -24.7070 C.3       1 UNK         0.0000
      9 H1         28.7680  -25.9940  -25.6940 H         1 UNK         0.0000
     10 H2         32.7580  -25.6650  -24.4900 H         1 UNK         0.0000
     11 H3         29.7740  -28.3000  -26.0620 H         1 UNK         0.0000
     12 H4         32.2800  -28.1630  -25.3190 H         1 UNK         0.0000
     13 H5         29.1030  -22.3180  -24.8120 H         1 UNK         0.0000
     14 H6         28.4920  -23.8180  -25.5510 H         1 UNK         0.0000
     15 H7         28.5260  -23.6480  -23.7790 H         1 UNK         0.0000
@<TRIPOS>BOND
     1    1    5 2
     2    2    3 1
     3    2    6 1
     4    2    9 1
     5    3    4 2
     6    3    5 1
     7    4    7 1
     8    4   10 1
     9    5    8 1
    10    6    7 2
    11    6   11 1
    12    7   12 1
    13    8   13 1
    14    8   14 1
    15    8   15 1
