@<TRIPOS>MOLECULE
14079
   15    15     0     0     0
SMALL
NO_CHARGES

@<TRIPOS>ATOM
      1 O1         43.9590  -33.7300  -15.6690 O.2       1 UNK         0.0000
      2 N1         43.3640  -31.9080  -12.8410 N.pl3     1 UNK         0.0000
      3 C1         43.7920  -33.0370  -13.5060 C.2       1 UNK         0.0000
      4 C2         43.4820  -34.1270  -12.7110 C.2       1 UNK         0.0000
      5 C3         44.4340  -33.0740  -14.7640 C.2       1 UNK         0.0000
      6 C4         42.7980  -32.2800  -11.6750 C.2       1 UNK         0.0000
      7 C5         42.8580  -33.6310  -11.5650 C.2       1 UNK         0.0000
      8 C6         45.7090  -32.3000  -14.9820 C.3       1 UNK         0.0000
      9 H1         43.4530  -30.9960  -13.1610 H         1 UNK         0.0000
     10 H2         43.6850  -35.1640  -12.9340 H         1 UNK         0.0000
     11 H3         42.3700  -31.6110  -10.9430 H         1 UNK         0.0000
     12 H4         42.4880  -34.2180  -10.7370 H         1 UNK         0.0000
     13 H5         46.0350  -31.8640  -14.0390 H         1 UNK         0.0000
     14 H6         46.4810  -32.9720  -15.3590 H         1 UNK         0.0000
     15 H7         45.5320  -31.5070  -15.7090 H         1 UNK         0.0000
@<TRIPOS>BOND
     1    1    5 2
     2    2    3 1
     3    2    6 1
     4    2    9 1
     5    3    4 2
     6    3    5 1
     7    4    7 1
     8    4   10 1
     9    5    8 1
    10    6    7 2
    11    6   11 1
    12    7   12 1
    13    8   13 1
    14    8   14 1
    15    8   15 1
