@<TRIPOS>MOLECULE
14079
   15    15     0     0     0
SMALL
NO_CHARGES

@<TRIPOS>ATOM
      1 O1         32.4630  -33.7380  -30.7540 O.2       1 UNK         0.0000
      2 N1         30.2970  -33.1290  -27.9860 N.pl3     1 UNK         0.0000
      3 C1         31.2780  -33.6360  -28.8110 C.2       1 UNK         0.0000
      4 C2         31.9120  -34.6550  -28.1220 C.2       1 UNK         0.0000
      5 C3         31.5840  -33.1930  -30.1180 C.2       1 UNK         0.0000
      6 C4         30.3120  -33.8140  -26.8240 C.2       1 UNK         0.0000
      7 C5         31.2910  -34.7520  -26.8760 C.2       1 UNK         0.0000
      8 C6         30.8190  -32.0430  -30.7220 C.3       1 UNK         0.0000
      9 H1         29.6940  -32.4010  -28.2050 H         1 UNK         0.0000
     10 H2         32.7320  -35.2600  -28.4800 H         1 UNK         0.0000
     11 H3         29.6540  -33.6410  -25.9850 H         1 UNK         0.0000
     12 H4         31.5430  -35.4490  -26.0910 H         1 UNK         0.0000
     13 H5         30.0380  -32.4300  -31.3750 H         1 UNK         0.0000
     14 H6         30.3680  -31.4500  -29.9260 H         1 UNK         0.0000
     15 H7         31.5000  -31.4180  -31.2990 H         1 UNK         0.0000
@<TRIPOS>BOND
     1    1    5 2
     2    2    3 1
     3    2    6 1
     4    2    9 1
     5    3    4 2
     6    3    5 1
     7    4    7 1
     8    4   10 1
     9    5    8 1
    10    6    7 2
    11    6   11 1
    12    7   12 1
    13    8   13 1
    14    8   14 1
    15    8   15 1
