@<TRIPOS>MOLECULE
14079
   15    15     0     0     0
SMALL
NO_CHARGES

@<TRIPOS>ATOM
      1 O1         31.1290  -36.3910  -26.4340 O.2       1 UNK         0.0000
      2 N1         30.5180  -33.6400  -28.4620 N.pl3     1 UNK         0.0000
      3 C1         31.2850  -34.5750  -27.8000 C.2       1 UNK         0.0000
      4 C2         32.4160  -34.8000  -28.5670 C.2       1 UNK         0.0000
      5 C3         30.9730  -35.1940  -26.5690 C.2       1 UNK         0.0000
      6 C4         31.1510  -33.2870  -29.5990 C.2       1 UNK         0.0000
      7 C5         32.3130  -33.9810  -29.6930 C.2       1 UNK         0.0000
      8 C6         30.4450  -34.3690  -25.4230 C.3       1 UNK         0.0000
      9 H1         29.6650  -33.2930  -28.1590 H         1 UNK         0.0000
     10 H2         33.2230  -35.4800  -28.3380 H         1 UNK         0.0000
     11 H3         30.7900  -32.5700  -30.3220 H         1 UNK         0.0000
     12 H4         33.0310  -33.9120  -30.4970 H         1 UNK         0.0000
     13 H5         31.2110  -34.2850  -24.6530 H         1 UNK         0.0000
     14 H6         30.1810  -33.3740  -25.7840 H         1 UNK         0.0000
     15 H7         29.5600  -34.8500  -25.0070 H         1 UNK         0.0000
@<TRIPOS>BOND
     1    1    5 2
     2    2    3 1
     3    2    6 1
     4    2    9 1
     5    3    4 2
     6    3    5 1
     7    4    7 1
     8    4   10 1
     9    5    8 1
    10    6    7 2
    11    6   11 1
    12    7   12 1
    13    8   13 1
    14    8   14 1
    15    8   15 1
