@<TRIPOS>MOLECULE
14079
   15    15     0     0     0
SMALL
NO_CHARGES

@<TRIPOS>ATOM
      1 O1         28.0940  -24.0820  -25.0280 O.2       1 UNK         0.0000
      2 N1         30.3640  -26.6370  -25.0600 N.pl3     1 UNK         0.0000
      3 C1         29.8850  -25.4260  -24.6080 C.2       1 UNK         0.0000
      4 C2         30.9800  -24.6300  -24.3180 C.2       1 UNK         0.0000
      5 C3         28.5260  -25.0660  -24.4620 C.2       1 UNK         0.0000
      6 C4         31.7120  -26.5960  -25.0600 C.2       1 UNK         0.0000
      7 C5         32.1180  -25.3820  -24.6090 C.2       1 UNK         0.0000
      8 C6         27.6130  -25.9030  -23.6030 C.3       1 UNK         0.0000
      9 H1         29.8220  -27.3930  -25.3330 H         1 UNK         0.0000
     10 H2         30.9570  -23.6190  -23.9380 H         1 UNK         0.0000
     11 H3         32.3640  -27.4010  -25.3660 H         1 UNK         0.0000
     12 H4         33.1420  -25.0580  -24.4950 H         1 UNK         0.0000
     13 H5         26.6520  -26.0220  -24.1030 H         1 UNK         0.0000
     14 H6         28.0630  -26.8840  -23.4440 H         1 UNK         0.0000
     15 H7         27.4650  -25.4110  -22.6420 H         1 UNK         0.0000
@<TRIPOS>BOND
     1    1    5 2
     2    2    3 1
     3    2    6 1
     4    2    9 1
     5    3    4 2
     6    3    5 1
     7    4    7 1
     8    4   10 1
     9    5    8 1
    10    6    7 2
    11    6   11 1
    12    7   12 1
    13    8   13 1
    14    8   14 1
    15    8   15 1
