@<TRIPOS>MOLECULE
14079
   15    15     0     0     0
SMALL
NO_CHARGES

@<TRIPOS>ATOM
      1 O1         31.4470  -23.4240  -24.3260 O.2       1 UNK         0.0000
      2 N1         28.8930  -25.4340  -24.3230 N.pl3     1 UNK         0.0000
      3 C1         30.0430  -25.0840  -23.6470 C.2       1 UNK         0.0000
      4 C2         29.8010  -25.2680  -22.2970 C.2       1 UNK         0.0000
      5 C3         31.2440  -24.6180  -24.2270 C.2       1 UNK         0.0000
      6 C4         27.9680  -25.8310  -23.4250 C.2       1 UNK         0.0000
      7 C5         28.4930  -25.7380  -22.1780 C.2       1 UNK         0.0000
      8 C6         32.2730  -25.6010  -24.7220 C.3       1 UNK         0.0000
      9 H1         28.7700  -25.4010  -25.2840 H         1 UNK         0.0000
     10 H2         30.4930  -25.0820  -21.4890 H         1 UNK         0.0000
     11 H3         26.9680  -26.1650  -23.6610 H         1 UNK         0.0000
     12 H4         27.9860  -25.9840  -21.2560 H         1 UNK         0.0000
     13 H5         32.4990  -26.3180  -23.9340 H         1 UNK         0.0000
     14 H6         31.8820  -26.1280  -25.5930 H         1 UNK         0.0000
     15 H7         33.1820  -25.0670  -25.0000 H         1 UNK         0.0000
@<TRIPOS>BOND
     1    1    5 2
     2    2    3 1
     3    2    6 1
     4    2    9 1
     5    3    4 2
     6    3    5 1
     7    4    7 1
     8    4   10 1
     9    5    8 1
    10    6    7 2
    11    6   11 1
    12    7   12 1
    13    8   13 1
    14    8   14 1
    15    8   15 1
