@<TRIPOS>MOLECULE
14079
   15    15     0     0     0
SMALL
NO_CHARGES

@<TRIPOS>ATOM
      1 O1         39.5880  -32.0800  -20.6440 O.2       1 UNK         0.0000
      2 N1         42.8100  -32.5310  -19.2330 N.pl3     1 UNK         0.0000
      3 C1         41.5730  -32.7920  -19.7820 C.2       1 UNK         0.0000
      4 C2         41.2500  -34.1010  -19.4680 C.2       1 UNK         0.0000
      5 C3         40.7830  -31.8920  -20.5330 C.2       1 UNK         0.0000
      6 C4         43.2410  -33.6350  -18.5910 C.2       1 UNK         0.0000
      7 C5         42.3100  -34.6140  -18.7200 C.2       1 UNK         0.0000
      8 C6         41.4240  -30.6990  -21.1940 C.3       1 UNK         0.0000
      9 H1         43.2910  -31.6900  -19.2970 H         1 UNK         0.0000
     10 H2         40.3490  -34.6260  -19.7500 H         1 UNK         0.0000
     11 H3         44.1790  -33.7280  -18.0630 H         1 UNK         0.0000
     12 H4         42.3790  -35.6120  -18.3140 H         1 UNK         0.0000
     13 H5         40.7800  -29.8280  -21.0740 H         1 UNK         0.0000
     14 H6         42.3910  -30.5030  -20.7310 H         1 UNK         0.0000
     15 H7         41.5640  -30.9050  -22.2550 H         1 UNK         0.0000
@<TRIPOS>BOND
     1    1    5 2
     2    2    3 1
     3    2    6 1
     4    2    9 1
     5    3    4 2
     6    3    5 1
     7    4    7 1
     8    4   10 1
     9    5    8 1
    10    6    7 2
    11    6   11 1
    12    7   12 1
    13    8   13 1
    14    8   14 1
    15    8   15 1
