@<TRIPOS>MOLECULE
14079
   15    15     0     0     0
SMALL
NO_CHARGES

@<TRIPOS>ATOM
      1 O1         32.4990  -25.7070  -24.7060 O.2       1 UNK         0.0000
      2 N1         29.7870  -24.6440  -25.8650 N.pl3     1 UNK         0.0000
      3 C1         30.2400  -25.6010  -24.9830 C.2       1 UNK         0.0000
      4 C2         29.2600  -25.7750  -24.0210 C.2       1 UNK         0.0000
      5 C3         31.4800  -26.2760  -25.0450 C.2       1 UNK         0.0000
      6 C4         28.5610  -24.2400  -25.4730 C.2       1 UNK         0.0000
      7 C5         28.2130  -24.9110  -24.3460 C.2       1 UNK         0.0000
      8 C6         31.5390  -27.7010  -25.5320 C.3       1 UNK         0.0000
      9 H1         30.2680  -24.3160  -26.6410 H         1 UNK         0.0000
     10 H2         29.2980  -26.4490  -23.1790 H         1 UNK         0.0000
     11 H3         27.9550  -23.4980  -25.9730 H         1 UNK         0.0000
     12 H4         27.2890  -24.7960  -23.7990 H         1 UNK         0.0000
     13 H5         32.1060  -28.3030  -24.8230 H         1 UNK         0.0000
     14 H6         30.5270  -28.0970  -25.6180 H         1 UNK         0.0000
     15 H7         32.0250  -27.7310  -26.5070 H         1 UNK         0.0000
@<TRIPOS>BOND
     1    1    5 2
     2    2    3 1
     3    2    6 1
     4    2    9 1
     5    3    4 2
     6    3    5 1
     7    4    7 1
     8    4   10 1
     9    5    8 1
    10    6    7 2
    11    6   11 1
    12    7   12 1
    13    8   13 1
    14    8   14 1
    15    8   15 1
