@<TRIPOS>MOLECULE
14079
   15    15     0     0     0
SMALL
NO_CHARGES

@<TRIPOS>ATOM
      1 O1         30.8120  -35.9440  -25.8840 O.2       1 UNK         0.0000
      2 N1         30.5670  -34.1030  -28.2220 N.pl3     1 UNK         0.0000
      3 C1         31.3610  -35.2010  -27.9650 C.2       1 UNK         0.0000
      4 C2         32.4650  -35.1150  -28.7960 C.2       1 UNK         0.0000
      5 C3         31.0940  -36.2260  -27.0310 C.2       1 UNK         0.0000
      6 C4         31.1580  -33.3540  -29.1740 C.2       1 UNK         0.0000
      7 C5         32.3200  -33.9490  -29.5480 C.2       1 UNK         0.0000
      8 C6         31.1600  -37.6700  -27.4580 C.3       1 UNK         0.0000
      9 H1         29.7230  -33.9030  -27.7880 H         1 UNK         0.0000
     10 H2         33.2820  -35.8190  -28.8530 H         1 UNK         0.0000
     11 H3         30.7690  -32.4310  -29.5780 H         1 UNK         0.0000
     12 H4         33.0080  -33.5830  -30.2950 H         1 UNK         0.0000
     13 H5         30.3080  -38.2100  -27.0450 H         1 UNK         0.0000
     14 H6         31.1340  -37.7280  -28.5460 H         1 UNK         0.0000
     15 H7         32.0850  -38.1150  -27.0920 H         1 UNK         0.0000
@<TRIPOS>BOND
     1    1    5 2
     2    2    3 1
     3    2    6 1
     4    2    9 1
     5    3    4 2
     6    3    5 1
     7    4    7 1
     8    4   10 1
     9    5    8 1
    10    6    7 2
    11    6   11 1
    12    7   12 1
    13    8   13 1
    14    8   14 1
    15    8   15 1
