@<TRIPOS>MOLECULE
Molecule from ChemDoodle Web Components
   27    28     0     0     0
SMALL
NO_CHARGES

@<TRIPOS>ATOM
      1 C1         40.8840  -30.7510  -22.1170 C.ar      1 UNK         0.0000
      2 C2         41.6480  -30.0670  -23.0210 C.ar      1 UNK         0.0000
      3 C3         41.1020  -29.6360  -24.2230 C.ar      1 UNK         0.0000
      4 C4         39.7830  -29.8900  -24.5270 C.ar      1 UNK         0.0000
      5 C5         38.9870  -30.5850  -23.6210 C.ar      1 UNK         0.0000
      6 C6         39.5440  -31.0190  -22.4050 C.ar      1 UNK         0.0000
      7 N1         37.6700  -30.9860  -23.6310 N.pl3     1 UNK         0.0000
      8 C7         37.3780  -31.6520  -22.4710 C.2       1 UNK         0.0000
      9 C8         38.4670  -31.7070  -21.6890 C.2       1 UNK         0.0000
     10 C9         38.5640  -32.3580  -20.3330 C.3       1 UNK         0.0000
     11 C10        37.2630  -32.1280  -19.5620 C.3       1 UNK         0.0000
     12 C11        37.5820  -31.7340  -18.1430 C.2       1 UNK         0.0000
     13 O1         36.5880  -31.4600  -17.2840 O.3       1 UNK         0.0000
     14 O2         38.7330  -31.6650  -17.7790 O.2       1 UNK         0.0000
     15 N2         36.4710  -33.3650  -19.5600 N.3       1 UNK         0.0000
     16 H1         41.3140  -31.0820  -21.1840 H         1 UNK         0.0000
     17 H2         42.6840  -29.8610  -22.7980 H         1 UNK         0.0000
     18 H3         41.7180  -29.0970  -24.9270 H         1 UNK         0.0000
     19 H4         39.3680  -29.5510  -25.4640 H         1 UNK         0.0000
     20 H5         37.0420  -30.8200  -24.3510 H         1 UNK         0.0000
     21 H6         36.4140  -32.0720  -22.2240 H         1 UNK         0.0000
     22 H7         38.7310  -33.4270  -20.4540 H         1 UNK         0.0000
     23 H8         39.3960  -31.9200  -19.7790 H         1 UNK         0.0000
     24 H9         36.6910  -31.3330  -20.0410 H         1 UNK         0.0000
     25 H10        36.5220  -32.0180  -16.4970 H         1 UNK         0.0000
     26 H11        36.9530  -34.1030  -19.0660 H         1 UNK         0.0000
     27 H12        35.5540  -33.2080  -19.1680 H         1 UNK         0.0000
@<TRIPOS>BOND
     1    1    2 ar
     2    1    6 ar
     3    1   16 1
     4    2    3 ar
     5    2   17 1
     6    3    4 ar
     7    3   18 1
     8    4    5 ar
     9    4   19 1
    10    5    6 ar
    11    5    7 1
    12    6    9 1
    13    7    8 1
    14    7   20 1
    15    8    9 2
    16    8   21 1
    17    9   10 1
    18   10   11 1
    19   10   22 1
    20   10   23 1
    21   11   12 1
    22   11   15 1
    23   11   24 1
    24   12   13 1
    25   12   14 2
    26   13   25 1
    27   15   26 1
    28   15   27 1
