@<TRIPOS>MOLECULE
Molecule from ChemDoodle Web Components
   27    28     0     0     0
SMALL
NO_CHARGES

@<TRIPOS>ATOM
      1 C1         40.6600  -30.8950  -21.6090 C.ar      1 UNK         0.0000
      2 C2         40.1470  -30.7670  -22.8690 C.ar      1 UNK         0.0000
      3 C3         38.8600  -31.2040  -23.1540 C.ar      1 UNK         0.0000
      4 C4         38.0780  -31.7730  -22.1730 C.ar      1 UNK         0.0000
      5 C5         38.5800  -31.9130  -20.8830 C.ar      1 UNK         0.0000
      6 C6         39.8840  -31.4700  -20.6000 C.ar      1 UNK         0.0000
      7 N1         38.0620  -32.4270  -19.7150 N.pl3     1 UNK         0.0000
      8 C7         38.9870  -32.3240  -18.7120 C.2       1 UNK         0.0000
      9 C8         40.1090  -31.7550  -19.1800 C.2       1 UNK         0.0000
     10 C9         41.3640  -31.4690  -18.3960 C.3       1 UNK         0.0000
     11 C10        41.5770  -32.5710  -17.3570 C.3       1 UNK         0.0000
     12 C11        41.7590  -31.9500  -15.9960 C.2       1 UNK         0.0000
     13 O1         41.2360  -30.7410  -15.7350 O.3       1 UNK         0.0000
     14 O2         42.3740  -32.5400  -15.1390 O.2       1 UNK         0.0000
     15 N2         42.7770  -33.3460  -17.7040 N.3       1 UNK         0.0000
     16 H1         41.6610  -30.5540  -21.3940 H         1 UNK         0.0000
     17 H2         40.7480  -30.3240  -23.6490 H         1 UNK         0.0000
     18 H3         38.4670  -31.0950  -24.1540 H         1 UNK         0.0000
     19 H4         37.0770  -32.1080  -22.4050 H         1 UNK         0.0000
     20 H5         37.1740  -32.8050  -19.6180 H         1 UNK         0.0000
     21 H6         38.8370  -32.6530  -17.6940 H         1 UNK         0.0000
     22 H7         42.2160  -31.4380  -19.0730 H         1 UNK         0.0000
     23 H8         41.2650  -30.5080  -17.8900 H         1 UNK         0.0000
     24 H9         40.7110  -33.2320  -17.3430 H         1 UNK         0.0000
     25 H10        41.6070  -30.2560  -14.9860 H         1 UNK         0.0000
     26 H11        43.3620  -33.4880  -16.8940 H         1 UNK         0.0000
     27 H12        42.5280  -34.2260  -18.1290 H         1 UNK         0.0000
@<TRIPOS>BOND
     1    1    2 ar
     2    1    6 ar
     3    1   16 1
     4    2    3 ar
     5    2   17 1
     6    3    4 ar
     7    3   18 1
     8    4    5 ar
     9    4   19 1
    10    5    6 ar
    11    5    7 1
    12    6    9 1
    13    7    8 1
    14    7   20 1
    15    8    9 2
    16    8   21 1
    17    9   10 1
    18   10   11 1
    19   10   22 1
    20   10   23 1
    21   11   12 1
    22   11   15 1
    23   11   24 1
    24   12   13 1
    25   12   14 2
    26   13   25 1
    27   15   26 1
    28   15   27 1
