@<TRIPOS>MOLECULE
Molecule from ChemDoodle Web Components
   27    28     0     0     0
SMALL
NO_CHARGES

@<TRIPOS>ATOM
      1 C1         40.8640  -29.5970  -24.3710 C.ar      1 UNK         0.0000
      2 C2         40.7830  -28.9360  -25.5650 C.ar      1 UNK         0.0000
      3 C3         39.5950  -28.9210  -26.2830 C.ar      1 UNK         0.0000
      4 C4         38.4780  -29.5700  -25.8070 C.ar      1 UNK         0.0000
      5 C5         38.5370  -30.2490  -24.5940 C.ar      1 UNK         0.0000
      6 C6         39.7430  -30.2610  -23.8700 C.ar      1 UNK         0.0000
      7 N1         37.6200  -30.9750  -23.8680 N.pl3     1 UNK         0.0000
      8 C7         38.2000  -31.4420  -22.7190 C.2       1 UNK         0.0000
      9 C8         39.4810  -31.0460  -22.6610 C.2       1 UNK         0.0000
     10 C9         40.4650  -31.3560  -21.5620 C.3       1 UNK         0.0000
     11 C10        39.8550  -32.3820  -20.6060 C.3       1 UNK         0.0000
     12 C11        40.3320  -32.1080  -19.2030 C.2       1 UNK         0.0000
     13 O1         41.4990  -32.6170  -18.7790 O.3       1 UNK         0.0000
     14 O2         39.6630  -31.4280  -18.4590 O.2       1 UNK         0.0000
     15 N2         40.2710  -33.7330  -21.0080 N.3       1 UNK         0.0000
     16 H1         41.7910  -29.6040  -23.8180 H         1 UNK         0.0000
     17 H2         41.6510  -28.4230  -25.9530 H         1 UNK         0.0000
     18 H3         39.5470  -28.3950  -27.2250 H         1 UNK         0.0000
     19 H4         37.5580  -29.5520  -26.3730 H         1 UNK         0.0000
     20 H5         36.7000  -31.1320  -24.1310 H         1 UNK         0.0000
     21 H6         37.7010  -32.0410  -21.9720 H         1 UNK         0.0000
     22 H7         41.3780  -31.7610  -21.9950 H         1 UNK         0.0000
     23 H8         40.6960  -30.4420  -21.0140 H         1 UNK         0.0000
     24 H9         38.7680  -32.3120  -20.6410 H         1 UNK         0.0000
     25 H10        41.6840  -32.5610  -17.8320 H         1 UNK         0.0000
     26 H11        40.1410  -34.3910  -20.2530 H         1 UNK         0.0000
     27 H12        39.7780  -34.0320  -21.8360 H         1 UNK         0.0000
@<TRIPOS>BOND
     1    1    2 ar
     2    1    6 ar
     3    1   16 1
     4    2    3 ar
     5    2   17 1
     6    3    4 ar
     7    3   18 1
     8    4    5 ar
     9    4   19 1
    10    5    6 ar
    11    5    7 1
    12    6    9 1
    13    7    8 1
    14    7   20 1
    15    8    9 2
    16    8   21 1
    17    9   10 1
    18   10   11 1
    19   10   22 1
    20   10   23 1
    21   11   12 1
    22   11   15 1
    23   11   24 1
    24   12   13 1
    25   12   14 2
    26   13   25 1
    27   15   26 1
    28   15   27 1
