@<TRIPOS>MOLECULE
Molecule from ChemDoodle Web Components
   27    28     0     0     0
SMALL
NO_CHARGES

@<TRIPOS>ATOM
      1 C1         42.8510  -33.4420  -14.6060 C.ar      1 UNK         0.0000
      2 C2         43.1870  -34.1770  -15.7090 C.ar      1 UNK         0.0000
      3 C3         42.9370  -33.6890  -16.9840 C.ar      1 UNK         0.0000
      4 C4         42.3480  -32.4570  -17.1630 C.ar      1 UNK         0.0000
      5 C5         41.9980  -31.6910  -16.0550 C.ar      1 UNK         0.0000
      6 C6         42.2530  -32.1900  -14.7640 C.ar      1 UNK         0.0000
      7 N1         41.4110  -30.4550  -15.9040 N.pl3     1 UNK         0.0000
      8 C7         41.2870  -30.1580  -14.5740 C.2       1 UNK         0.0000
      9 C8         41.7760  -31.1650  -13.8330 C.2       1 UNK         0.0000
     10 C9         41.8210  -31.2300  -12.3280 C.3       1 UNK         0.0000
     11 C10        40.5370  -30.6300  -11.7530 C.3       1 UNK         0.0000
     12 C11        40.8130  -29.2350  -11.2530 C.2       1 UNK         0.0000
     13 O1         40.2750  -28.1790  -11.8830 O.3       1 UNK         0.0000
     14 O2         41.5180  -29.0680  -10.2860 O.2       1 UNK         0.0000
     15 N2         40.0640  -31.4640  -10.6390 N.3       1 UNK         0.0000
     16 H1         43.0480  -33.8270  -13.6180 H         1 UNK         0.0000
     17 H2         43.6480  -35.1450  -15.5860 H         1 UNK         0.0000
     18 H3         43.2080  -34.2810  -17.8460 H         1 UNK         0.0000
     19 H4         42.1580  -32.0860  -18.1590 H         1 UNK         0.0000
     20 H5         41.1270  -29.8800  -16.6320 H         1 UNK         0.0000
     21 H6         40.8580  -29.2490  -14.1790 H         1 UNK         0.0000
     22 H7         41.9110  -32.2680  -12.0110 H         1 UNK         0.0000
     23 H8         42.6800  -30.6630  -11.9660 H         1 UNK         0.0000
     24 H9         39.7720  -30.5940  -12.5290 H         1 UNK         0.0000
     25 H10        40.3430  -27.3230  -11.4390 H         1 UNK         0.0000
     26 H11        40.7970  -32.0750  -10.3090 H         1 UNK         0.0000
     27 H12        39.7040  -30.8940   -9.8880 H         1 UNK         0.0000
@<TRIPOS>BOND
     1    1    2 ar
     2    1    6 ar
     3    1   16 1
     4    2    3 ar
     5    2   17 1
     6    3    4 ar
     7    3   18 1
     8    4    5 ar
     9    4   19 1
    10    5    6 ar
    11    5    7 1
    12    6    9 1
    13    7    8 1
    14    7   20 1
    15    8    9 2
    16    8   21 1
    17    9   10 1
    18   10   11 1
    19   10   22 1
    20   10   23 1
    21   11   12 1
    22   11   15 1
    23   11   24 1
    24   12   13 1
    25   12   14 2
    26   13   25 1
    27   15   26 1
    28   15   27 1
