@<TRIPOS>MOLECULE
Molecule from ChemDoodle Web Components
   27    28     0     0     0
SMALL
NO_CHARGES

@<TRIPOS>ATOM
      1 C1         41.9770  -32.3850  -12.4890 C.ar      1 UNK         0.0000
      2 C2         41.7450  -32.0120  -11.1950 C.ar      1 UNK         0.0000
      3 C3         41.2530  -30.7470  -10.9030 C.ar      1 UNK         0.0000
      4 C4         40.9910  -29.8450  -11.9110 C.ar      1 UNK         0.0000
      5 C5         41.2200  -30.2030  -13.2360 C.ar      1 UNK         0.0000
      6 C6         41.7180  -31.4860  -13.5260 C.ar      1 UNK         0.0000
      7 N1         41.0630  -29.5470  -14.4360 N.pl3     1 UNK         0.0000
      8 C7         41.4420  -30.3640  -15.4660 C.2       1 UNK         0.0000
      9 C8         41.8480  -31.5500  -14.9840 C.2       1 UNK         0.0000
     10 C9         42.3480  -32.7200  -15.7900 C.3       1 UNK         0.0000
     11 C10        42.2260  -32.4030  -17.2810 C.3       1 UNK         0.0000
     12 C11        40.7700  -32.3200  -17.6610 C.2       1 UNK         0.0000
     13 O1         39.8830  -33.1600  -17.1040 O.3       1 UNK         0.0000
     14 O2         40.4000  -31.4980  -18.4660 O.2       1 UNK         0.0000
     15 N2         42.8750  -33.4650  -18.0620 N.3       1 UNK         0.0000
     16 H1         42.3590  -33.3700  -12.7090 H         1 UNK         0.0000
     17 H2         41.9460  -32.7070  -10.3940 H         1 UNK         0.0000
     18 H3         41.0740  -30.4670   -9.8760 H         1 UNK         0.0000
     19 H4         40.6080  -28.8640  -11.6730 H         1 UNK         0.0000
     20 H5         40.7330  -28.6400  -14.5360 H         1 UNK         0.0000
     21 H6         41.4180  -30.0950  -16.5120 H         1 UNK         0.0000
     22 H7         43.3910  -32.9130  -15.5440 H         1 UNK         0.0000
     23 H8         41.7500  -33.6030  -15.5580 H         1 UNK         0.0000
     24 H9         42.7110  -31.4500  -17.4920 H         1 UNK         0.0000
     25 H10        39.6200  -32.9790  -16.1910 H         1 UNK         0.0000
     26 H11        43.2630  -33.0970  -18.9190 H         1 UNK         0.0000
     27 H12        43.5830  -33.9340  -17.5180 H         1 UNK         0.0000
@<TRIPOS>BOND
     1    1    2 ar
     2    1    6 ar
     3    1   16 1
     4    2    3 ar
     5    2   17 1
     6    3    4 ar
     7    3   18 1
     8    4    5 ar
     9    4   19 1
    10    5    6 ar
    11    5    7 1
    12    6    9 1
    13    7    8 1
    14    7   20 1
    15    8    9 2
    16    8   21 1
    17    9   10 1
    18   10   11 1
    19   10   22 1
    20   10   23 1
    21   11   12 1
    22   11   15 1
    23   11   24 1
    24   12   13 1
    25   12   14 2
    26   13   25 1
    27   15   26 1
    28   15   27 1
