@<TRIPOS>MOLECULE
Molecule from ChemDoodle Web Components
   27    28     0     0     0
SMALL
NO_CHARGES

@<TRIPOS>ATOM
      1 C1         38.1670  -30.7030  -24.1490 C.ar      1 UNK         0.0000
      2 C2         37.7760  -30.1220  -25.3230 C.ar      1 UNK         0.0000
      3 C3         38.6600  -29.3380  -26.0510 C.ar      1 UNK         0.0000
      4 C4         39.9460  -29.1300  -25.6040 C.ar      1 UNK         0.0000
      5 C5         40.3660  -29.7120  -24.4120 C.ar      1 UNK         0.0000
      6 C6         39.4670  -30.5060  -23.6780 C.ar      1 UNK         0.0000
      7 N1         41.5540  -29.6950  -23.7160 N.pl3     1 UNK         0.0000
      8 C7         41.4370  -30.4450  -22.5770 C.2       1 UNK         0.0000
      9 C8         40.2010  -30.9620  -22.4950 C.2       1 UNK         0.0000
     10 C9         39.6680  -31.8390  -21.3920 C.3       1 UNK         0.0000
     11 C10        39.7520  -31.0920  -20.0600 C.3       1 UNK         0.0000
     12 C11        40.7120  -31.8050  -19.1430 C.2       1 UNK         0.0000
     13 O1         41.3920  -32.8740  -19.5850 O.3       1 UNK         0.0000
     14 O2         40.8690  -31.4140  -18.0100 O.2       1 UNK         0.0000
     15 N2         38.4210  -31.0510  -19.4380 N.3       1 UNK         0.0000
     16 H1         37.4740  -31.3120  -23.5880 H         1 UNK         0.0000
     17 H2         36.7700  -30.2750  -25.6860 H         1 UNK         0.0000
     18 H3         38.3370  -28.8860  -26.9770 H         1 UNK         0.0000
     19 H4         40.6270  -28.5190  -26.1780 H         1 UNK         0.0000
     20 H5         42.3550  -29.2220  -23.9920 H         1 UNK         0.0000
     21 H6         42.2230  -30.5980  -21.8520 H         1 UNK         0.0000
     22 H7         38.6300  -32.0960  -21.6010 H         1 UNK         0.0000
     23 H8         40.2640  -32.7510  -21.3340 H         1 UNK         0.0000
     24 H9         40.1020  -30.0750  -20.2340 H         1 UNK         0.0000
     25 H10        40.8720  -33.6360  -19.8750 H         1 UNK         0.0000
     26 H11        38.2860  -31.8380  -18.8210 H         1 UNK         0.0000
     27 H12        38.2770  -30.1800  -18.9490 H         1 UNK         0.0000
@<TRIPOS>BOND
     1    1    2 ar
     2    1    6 ar
     3    1   16 1
     4    2    3 ar
     5    2   17 1
     6    3    4 ar
     7    3   18 1
     8    4    5 ar
     9    4   19 1
    10    5    6 ar
    11    5    7 1
    12    6    9 1
    13    7    8 1
    14    7   20 1
    15    8    9 2
    16    8   21 1
    17    9   10 1
    18   10   11 1
    19   10   22 1
    20   10   23 1
    21   11   12 1
    22   11   15 1
    23   11   24 1
    24   12   13 1
    25   12   14 2
    26   13   25 1
    27   15   26 1
    28   15   27 1
