@<TRIPOS>MOLECULE
Molecule from ChemDoodle Web Components
   27    28     0     0     0
SMALL
NO_CHARGES

@<TRIPOS>ATOM
      1 C1         41.9940  -31.9250  -12.3660 C.ar      1 UNK         0.0000
      2 C2         41.4720  -31.5880  -11.1490 C.ar      1 UNK         0.0000
      3 C3         40.6430  -30.4820  -11.0190 C.ar      1 UNK         0.0000
      4 C4         40.3310  -29.7060  -12.1130 C.ar      1 UNK         0.0000
      5 C5         40.8510  -30.0300  -13.3620 C.ar      1 UNK         0.0000
      6 C6         41.6910  -31.1510  -13.4880 C.ar      1 UNK         0.0000
      7 N1         40.7320  -29.4690  -14.6130 N.pl3     1 UNK         0.0000
      8 C7         41.4620  -30.1910  -15.5190 C.2       1 UNK         0.0000
      9 C8         42.0650  -31.2200  -14.9030 C.2       1 UNK         0.0000
     10 C9         42.9620  -32.2460  -15.5450 C.3       1 UNK         0.0000
     11 C10        42.1310  -33.4640  -15.9560 C.3       1 UNK         0.0000
     12 C11        42.0410  -34.4240  -14.7980 C.2       1 UNK         0.0000
     13 O1         43.1450  -34.7480  -14.1080 O.3       1 UNK         0.0000
     14 O2         40.9740  -34.9020  -14.4910 O.2       1 UNK         0.0000
     15 N2         42.7730  -34.1320  -17.0960 N.3       1 UNK         0.0000
     16 H1         42.6380  -32.7860  -12.4600 H         1 UNK         0.0000
     17 H2         41.7080  -32.1860  -10.2810 H         1 UNK         0.0000
     18 H3         40.2370  -30.2290  -10.0510 H         1 UNK         0.0000
     19 H4         39.6840  -28.8480  -12.0020 H         1 UNK         0.0000
     20 H5         40.2090  -28.6790  -14.8230 H         1 UNK         0.0000
     21 H6         41.5400  -29.9650  -16.5720 H         1 UNK         0.0000
     22 H7         43.4350  -31.8160  -16.4260 H         1 UNK         0.0000
     23 H8         43.7290  -32.5540  -14.8330 H         1 UNK         0.0000
     24 H9         41.1300  -33.1420  -16.2410 H         1 UNK         0.0000
     25 H10        43.3630  -34.1970  -13.3440 H         1 UNK         0.0000
     26 H11        42.8010  -35.1320  -16.9610 H         1 UNK         0.0000
     27 H12        42.3090  -33.8970  -17.9610 H         1 UNK         0.0000
@<TRIPOS>BOND
     1    1    2 ar
     2    1    6 ar
     3    1   16 1
     4    2    3 ar
     5    2   17 1
     6    3    4 ar
     7    3   18 1
     8    4    5 ar
     9    4   19 1
    10    5    6 ar
    11    5    7 1
    12    6    9 1
    13    7    8 1
    14    7   20 1
    15    8    9 2
    16    8   21 1
    17    9   10 1
    18   10   11 1
    19   10   22 1
    20   10   23 1
    21   11   12 1
    22   11   15 1
    23   11   24 1
    24   12   13 1
    25   12   14 2
    26   13   25 1
    27   15   26 1
    28   15   27 1
