@<TRIPOS>MOLECULE
Molecule from ChemDoodle Web Components
   27    28     0     0     0
SMALL
NO_CHARGES

@<TRIPOS>ATOM
      1 C1         41.4010  -30.5740  -14.4850 C.ar      1 UNK         0.0000
      2 C2         41.4000  -30.4150  -13.1270 C.ar      1 UNK         0.0000
      3 C3         41.7870  -31.4570  -12.2950 C.ar      1 UNK         0.0000
      4 C4         42.1780  -32.6680  -12.8200 C.ar      1 UNK         0.0000
      5 C5         42.1860  -32.8530  -14.2000 C.ar      1 UNK         0.0000
      6 C6         41.7930  -31.7950  -15.0390 C.ar      1 UNK         0.0000
      7 N1         42.5150  -33.9150  -15.0120 N.pl3     1 UNK         0.0000
      8 C7         42.3440  -33.5670  -16.3250 C.2       1 UNK         0.0000
      9 C8         41.9100  -32.3000  -16.4090 C.2       1 UNK         0.0000
     10 C9         41.5960  -31.5430  -17.6740 C.3       1 UNK         0.0000
     11 C10        40.4240  -32.2140  -18.3920 C.3       1 UNK         0.0000
     12 C11        40.6390  -32.1420  -19.8820 C.2       1 UNK         0.0000
     13 O1         40.5750  -33.2590  -20.6230 O.3       1 UNK         0.0000
     14 O2         40.8700  -31.0790  -20.4090 O.2       1 UNK         0.0000
     15 N2         39.1760  -31.5190  -18.0450 N.3       1 UNK         0.0000
     16 H1         41.0990  -29.7610  -15.1260 H         1 UNK         0.0000
     17 H2         41.0950  -29.4710  -12.7000 H         1 UNK         0.0000
     18 H3         41.7820  -31.3150  -11.2240 H         1 UNK         0.0000
     19 H4         42.4780  -33.4720  -12.1650 H         1 UNK         0.0000
     20 H5         42.8210  -34.7810  -14.7000 H         1 UNK         0.0000
     21 H6         42.5310  -34.2170  -17.1670 H         1 UNK         0.0000
     22 H7         41.3320  -30.5160  -17.4270 H         1 UNK         0.0000
     23 H8         42.4710  -31.5470  -18.3260 H         1 UNK         0.0000
     24 H9         40.3560  -33.2570  -18.0840 H         1 UNK         0.0000
     25 H10        40.9560  -33.2190  -21.5110 H         1 UNK         0.0000
     26 H11        39.3670  -30.6490  -17.5680 H         1 UNK         0.0000
     27 H12        38.6080  -31.3650  -18.8640 H         1 UNK         0.0000
@<TRIPOS>BOND
     1    1    2 ar
     2    1    6 ar
     3    1   16 1
     4    2    3 ar
     5    2   17 1
     6    3    4 ar
     7    3   18 1
     8    4    5 ar
     9    4   19 1
    10    5    6 ar
    11    5    7 1
    12    6    9 1
    13    7    8 1
    14    7   20 1
    15    8    9 2
    16    8   21 1
    17    9   10 1
    18   10   11 1
    19   10   22 1
    20   10   23 1
    21   11   12 1
    22   11   15 1
    23   11   24 1
    24   12   13 1
    25   12   14 2
    26   13   25 1
    27   15   26 1
    28   15   27 1
