@<TRIPOS>MOLECULE
Molecule from ChemDoodle Web Components
   27    28     0     0     0
SMALL
NO_CHARGES

@<TRIPOS>ATOM
      1 C1         37.8430  -31.9720  -21.6800 C.ar      1 UNK         0.0000
      2 C2         36.8120  -32.2830  -20.8380 C.ar      1 UNK         0.0000
      3 C3         36.9260  -32.0600  -19.4720 C.ar      1 UNK         0.0000
      4 C4         38.0770  -31.5230  -18.9410 C.ar      1 UNK         0.0000
      5 C5         39.1390  -31.1980  -19.7790 C.ar      1 UNK         0.0000
      6 C6         39.0200  -31.4260  -21.1620 C.ar      1 UNK         0.0000
      7 N1         40.3880  -30.6620  -19.5620 N.pl3     1 UNK         0.0000
      8 C7         41.0570  -30.5430  -20.7510 C.2       1 UNK         0.0000
      9 C8         40.2860  -30.9870  -21.7560 C.2       1 UNK         0.0000
     10 C9         40.6550  -31.0320  -23.2160 C.3       1 UNK         0.0000
     11 C10        40.4640  -29.6450  -23.8330 C.3       1 UNK         0.0000
     12 C11        39.3600  -29.6990  -24.8570 C.2       1 UNK         0.0000
     13 O1         39.6010  -29.3220  -26.1230 O.3       1 UNK         0.0000
     14 O2         38.2580  -30.0810  -24.5400 O.2       1 UNK         0.0000
     15 N2         41.7120  -29.2220  -24.4810 N.3       1 UNK         0.0000
     16 H1         37.7490  -32.1470  -22.7410 H         1 UNK         0.0000
     17 H2         35.9040  -32.7060  -21.2390 H         1 UNK         0.0000
     18 H3         36.1030  -32.3110  -18.8200 H         1 UNK         0.0000
     19 H4         38.1550  -31.3530  -17.8780 H         1 UNK         0.0000
     20 H5         40.7420  -30.4060  -18.6960 H         1 UNK         0.0000
     21 H6         42.0570  -30.1510  -20.8630 H         1 UNK         0.0000
     22 H7         41.6960  -31.3350  -23.3190 H         1 UNK         0.0000
     23 H8         40.0140  -31.7490  -23.7300 H         1 UNK         0.0000
     24 H9         40.2010  -28.9320  -23.0520 H         1 UNK         0.0000
     25 H10        39.7350  -28.3770  -26.2810 H         1 UNK         0.0000
     26 H11        41.6840  -29.4030  -25.4740 H         1 UNK         0.0000
     27 H12        41.9040  -28.2490  -24.2980 H         1 UNK         0.0000
@<TRIPOS>BOND
     1    1    2 ar
     2    1    6 ar
     3    1   16 1
     4    2    3 ar
     5    2   17 1
     6    3    4 ar
     7    3   18 1
     8    4    5 ar
     9    4   19 1
    10    5    6 ar
    11    5    7 1
    12    6    9 1
    13    7    8 1
    14    7   20 1
    15    8    9 2
    16    8   21 1
    17    9   10 1
    18   10   11 1
    19   10   22 1
    20   10   23 1
    21   11   12 1
    22   11   15 1
    23   11   24 1
    24   12   13 1
    25   12   14 2
    26   13   25 1
    27   15   26 1
    28   15   27 1
