@<TRIPOS>MOLECULE
Molecule from ChemDoodle Web Components
   27    28     0     0     0
SMALL
NO_CHARGES

@<TRIPOS>ATOM
      1 C1         41.1880  -32.0010  -16.2980 C.ar      1 UNK         0.0000
      2 C2         41.3360  -32.0170  -17.6570 C.ar      1 UNK         0.0000
      3 C3         42.3730  -32.7300  -18.2440 C.ar      1 UNK         0.0000
      4 C4         43.2700  -33.4320  -17.4700 C.ar      1 UNK         0.0000
      5 C5         43.1380  -33.4290  -16.0850 C.ar      1 UNK         0.0000
      6 C6         42.0860  -32.7060  -15.4940 C.ar      1 UNK         0.0000
      7 N1         43.8520  -34.0150  -15.0640 N.pl3     1 UNK         0.0000
      8 C7         43.2920  -33.6890  -13.8580 C.2       1 UNK         0.0000
      9 C8         42.2230  -32.9010  -14.0490 C.2       1 UNK         0.0000
     10 C9         41.3350  -32.3210  -12.9780 C.3       1 UNK         0.0000
     11 C10        41.7980  -30.9020  -12.6440 C.3       1 UNK         0.0000
     12 C11        41.3870  -30.5570  -11.2360 C.2       1 UNK         0.0000
     13 O1         40.9460  -31.5200  -10.4120 O.3       1 UNK         0.0000
     14 O2         41.4550  -29.4140  -10.8490 O.2       1 UNK         0.0000
     15 N2         41.1790  -29.9530  -13.5800 N.3       1 UNK         0.0000
     16 H1         40.3800  -31.4450  -15.8470 H         1 UNK         0.0000
     17 H2         40.6420  -31.4710  -18.2770 H         1 UNK         0.0000
     18 H3         42.4770  -32.7340  -19.3190 H         1 UNK         0.0000
     19 H4         44.0720  -33.9840  -17.9370 H         1 UNK         0.0000
     20 H5         44.6360  -34.5750  -15.1810 H         1 UNK         0.0000
     21 H6         43.6580  -34.0180  -12.8960 H         1 UNK         0.0000
     22 H7         40.3060  -32.2940  -13.3340 H         1 UNK         0.0000
     23 H8         41.3940  -32.9420  -12.0830 H         1 UNK         0.0000
     24 H9         42.8820  -30.8420  -12.7330 H         1 UNK         0.0000
     25 H10        40.3120  -32.1530  -10.7750 H         1 UNK         0.0000
     26 H11        40.2950  -29.6190  -13.2250 H         1 UNK         0.0000
     27 H12        41.8010  -29.1850  -13.7810 H         1 UNK         0.0000
@<TRIPOS>BOND
     1    1    2 ar
     2    1    6 ar
     3    1   16 1
     4    2    3 ar
     5    2   17 1
     6    3    4 ar
     7    3   18 1
     8    4    5 ar
     9    4   19 1
    10    5    6 ar
    11    5    7 1
    12    6    9 1
    13    7    8 1
    14    7   20 1
    15    8    9 2
    16    8   21 1
    17    9   10 1
    18   10   11 1
    19   10   22 1
    20   10   23 1
    21   11   12 1
    22   11   15 1
    23   11   24 1
    24   12   13 1
    25   12   14 2
    26   13   25 1
    27   15   26 1
    28   15   27 1
