@<TRIPOS>MOLECULE
Molecule from ChemDoodle Web Components
   27    28     0     0     0
SMALL
NO_CHARGES

@<TRIPOS>ATOM
      1 C1         17.6700   -0.3170   -2.8420 C.ar      1 UNK         0.0000
      2 C2         18.3220   -0.8720   -3.9070 C.ar      1 UNK         0.0000
      3 C3         18.1150   -0.3870   -5.1910 C.ar      1 UNK         0.0000
      4 C4         17.2500    0.6600   -5.4160 C.ar      1 UNK         0.0000
      5 C5         16.5750    1.2410   -4.3460 C.ar      1 UNK         0.0000
      6 C6         16.7880    0.7460   -3.0470 C.ar      1 UNK         0.0000
      7 N1         15.6690    2.2720   -4.2450 N.pl3     1 UNK         0.0000
      8 C7         15.3050    2.4450   -2.9370 C.2       1 UNK         0.0000
      9 C8         15.9450    1.5550   -2.1630 C.2       1 UNK         0.0000
     10 C9         15.8160    1.4120   -0.6680 C.3       1 UNK         0.0000
     11 C10        17.1200    1.8490    0.0000 C.3       1 UNK         0.0000
     12 C11        17.1880    1.2780    1.3930 C.2       1 UNK         0.0000
     13 O1         16.1310    1.3850    2.2140 O.3       1 UNK         0.0000
     14 O2         18.1930    0.7230    1.7710 O.2       1 UNK         0.0000
     15 N2         17.1650    3.3160    0.0710 N.3       1 UNK         0.0000
     16 H1         17.8350   -0.6980   -1.8460 H         1 UNK         0.0000
     17 H2         19.0030   -1.6950   -3.7470 H         1 UNK         0.0000
     18 H3         18.6380   -0.8360   -6.0220 H         1 UNK         0.0000
     19 H4         17.0960    1.0300   -6.4190 H         1 UNK         0.0000
     20 H5         15.3370    2.7980   -4.9900 H         1 UNK         0.0000
     21 H6         14.6060    3.1880   -2.5810 H         1 UNK         0.0000
     22 H7         14.9980    2.0360   -0.3120 H         1 UNK         0.0000
     23 H8         15.6130    0.3690   -0.4200 H         1 UNK         0.0000
     24 H9         17.9680    1.4890   -0.5830 H         1 UNK         0.0000
     25 H10        16.3000    1.7160    3.1060 H         1 UNK         0.0000
     26 H11        18.1170    3.6460    0.1500 H         1 UNK         0.0000
     27 H12        16.7050    3.7310   -0.7250 H         1 UNK         0.0000
@<TRIPOS>BOND
     1    1    2 ar
     2    1    6 ar
     3    1   16 1
     4    2    3 ar
     5    2   17 1
     6    3    4 ar
     7    3   18 1
     8    4    5 ar
     9    4   19 1
    10    5    6 ar
    11    5    7 1
    12    6    9 1
    13    7    8 1
    14    7   20 1
    15    8    9 2
    16    8   21 1
    17    9   10 1
    18   10   11 1
    19   10   22 1
    20   10   23 1
    21   11   12 1
    22   11   15 1
    23   11   24 1
    24   12   13 1
    25   12   14 2
    26   13   25 1
    27   15   26 1
    28   15   27 1
