@<TRIPOS>MOLECULE
Molecule from ChemDoodle Web Components
   27    28     0     0     0
SMALL
NO_CHARGES

@<TRIPOS>ATOM
      1 C1         16.5800   -4.2010   -4.7880 C.ar      1 UNK         0.0000
      2 C2         16.9710   -5.4930   -4.5700 C.ar      1 UNK         0.0000
      3 C3         18.2790   -5.7800   -4.2020 C.ar      1 UNK         0.0000
      4 C4         19.2040   -4.7720   -4.0510 C.ar      1 UNK         0.0000
      5 C5         18.8280   -3.4500   -4.2680 C.ar      1 UNK         0.0000
      6 C6         17.5030   -3.1630   -4.6400 C.ar      1 UNK         0.0000
      7 N1         19.5000   -2.2500   -4.2010 N.pl3     1 UNK         0.0000
      8 C7         18.6510   -1.2230   -4.5150 C.2       1 UNK         0.0000
      9 C8         17.4300   -1.7080   -4.7900 C.2       1 UNK         0.0000
     10 C9         16.2170   -0.9060   -5.1850 C.3       1 UNK         0.0000
     11 C10        16.5860    0.5760   -5.2590 C.3       1 UNK         0.0000
     12 C11        15.9470    1.3110   -4.1090 C.2       1 UNK         0.0000
     13 O1         15.6690    2.6200   -4.2210 O.3       1 UNK         0.0000
     14 O2         15.6850    0.7230   -3.0860 O.2       1 UNK         0.0000
     15 N2         16.1030    1.1380   -6.5280 N.3       1 UNK         0.0000
     16 H1         15.5620   -3.9840   -5.0730 H         1 UNK         0.0000
     17 H2         16.2570   -6.2940   -4.6850 H         1 UNK         0.0000
     18 H3         18.5730   -6.8060   -4.0330 H         1 UNK         0.0000
     19 H4         20.2190   -5.0060   -3.7640 H         1 UNK         0.0000
     20 H5         20.4360   -2.1470   -3.9660 H         1 UNK         0.0000
     21 H6         18.9240   -0.1790   -4.5380 H         1 UNK         0.0000
     22 H7         15.8610   -1.2410   -6.1590 H         1 UNK         0.0000
     23 H8         15.4310   -1.0470   -4.4420 H         1 UNK         0.0000
     24 H9         17.6700    0.6850   -5.2040 H         1 UNK         0.0000
     25 H10        16.4070    3.2360   -4.1180 H         1 UNK         0.0000
     26 H11        16.4720    2.0670   -6.6760 H         1 UNK         0.0000
     27 H12        16.3300    0.5320   -7.3020 H         1 UNK         0.0000
@<TRIPOS>BOND
     1    1    2 ar
     2    1    6 ar
     3    1   16 1
     4    2    3 ar
     5    2   17 1
     6    3    4 ar
     7    3   18 1
     8    4    5 ar
     9    4   19 1
    10    5    6 ar
    11    5    7 1
    12    6    9 1
    13    7    8 1
    14    7   20 1
    15    8    9 2
    16    8   21 1
    17    9   10 1
    18   10   11 1
    19   10   22 1
    20   10   23 1
    21   11   12 1
    22   11   15 1
    23   11   24 1
    24   12   13 1
    25   12   14 2
    26   13   25 1
    27   15   26 1
    28   15   27 1
