@<TRIPOS>MOLECULE
Molecule from ChemDoodle Web Components
   27    28     0     0     0
SMALL
NO_CHARGES

@<TRIPOS>ATOM
      1 C1         20.5060   -2.2960   -5.3870 C.ar      1 UNK         0.0000
      2 C2         21.4620   -3.2550   -5.2030 C.ar      1 UNK         0.0000
      3 C3         21.1510   -4.4480   -4.5660 C.ar      1 UNK         0.0000
      4 C4         19.8740   -4.6880   -4.1070 C.ar      1 UNK         0.0000
      5 C5         18.8840   -3.7260   -4.2840 C.ar      1 UNK         0.0000
      6 C6         19.2050   -2.5180   -4.9300 C.ar      1 UNK         0.0000
      7 N1         17.5510   -3.6650   -3.9480 N.pl3     1 UNK         0.0000
      8 C7         17.0210   -2.4710   -4.3580 C.2       1 UNK         0.0000
      9 C8         17.9680   -1.7330   -4.9570 C.2       1 UNK         0.0000
     10 C9         17.7940   -0.3550   -5.5420 C.3       1 UNK         0.0000
     11 C10        16.3050   -0.0070   -5.5920 C.3       1 UNK         0.0000
     12 C11        15.7570   -0.3400   -6.9560 C.2       1 UNK         0.0000
     13 O1         14.5670   -0.9500   -7.0690 O.3       1 UNK         0.0000
     14 O2         16.3890   -0.0580   -7.9470 O.2       1 UNK         0.0000
     15 N2         16.1290    1.4280   -5.3310 N.3       1 UNK         0.0000
     16 H1         20.7540   -1.3710   -5.8840 H         1 UNK         0.0000
     17 H2         22.4680   -3.0820   -5.5560 H         1 UNK         0.0000
     18 H3         21.9170   -5.1970   -4.4280 H         1 UNK         0.0000
     19 H4         19.6420   -5.6200   -3.6130 H         1 UNK         0.0000
     20 H5         17.0590   -4.3650   -3.4910 H         1 UNK         0.0000
     21 H6         15.9940   -2.1680   -4.2180 H         1 UNK         0.0000
     22 H7         18.3160    0.3720   -4.9210 H         1 UNK         0.0000
     23 H8         18.2050   -0.3340   -6.5520 H         1 UNK         0.0000
     24 H9         15.7710   -0.5810   -4.8350 H         1 UNK         0.0000
     25 H10        14.3660   -1.6450   -6.4280 H         1 UNK         0.0000
     26 H11        15.9990    1.6030   -4.3450 H         1 UNK         0.0000
     27 H12        16.9070    1.9600   -5.6920 H         1 UNK         0.0000
@<TRIPOS>BOND
     1    1    2 ar
     2    1    6 ar
     3    1   16 1
     4    2    3 ar
     5    2   17 1
     6    3    4 ar
     7    3   18 1
     8    4    5 ar
     9    4   19 1
    10    5    6 ar
    11    5    7 1
    12    6    9 1
    13    7    8 1
    14    7   20 1
    15    8    9 2
    16    8   21 1
    17    9   10 1
    18   10   11 1
    19   10   22 1
    20   10   23 1
    21   11   12 1
    22   11   15 1
    23   11   24 1
    24   12   13 1
    25   12   14 2
    26   13   25 1
    27   15   26 1
    28   15   27 1
