@<TRIPOS>MOLECULE
Molecule from ChemDoodle Web Components
   27    28     0     0     0
SMALL
NO_CHARGES

@<TRIPOS>ATOM
      1 C1         17.1820    0.4110   -2.0900 C.ar      1 UNK         0.0000
      2 C2         16.3860    1.1390   -1.2500 C.ar      1 UNK         0.0000
      3 C3         15.4950    2.0750   -1.7590 C.ar      1 UNK         0.0000
      4 C4         15.3960    2.2870   -3.1160 C.ar      1 UNK         0.0000
      5 C5         16.1970    1.5570   -3.9890 C.ar      1 UNK         0.0000
      6 C6         17.0980    0.6100   -3.4700 C.ar      1 UNK         0.0000
      7 N1         16.3310    1.5370   -5.3590 N.pl3     1 UNK         0.0000
      8 C7         17.2790    0.6170   -5.7200 C.2       1 UNK         0.0000
      9 C8         17.7800    0.0230   -4.6260 C.2       1 UNK         0.0000
     10 C9         18.8470   -1.0400   -4.5940 C.3       1 UNK         0.0000
     11 C10        20.2260   -0.3800   -4.6050 C.3       1 UNK         0.0000
     12 C11        21.2410   -1.3440   -5.1650 C.2       1 UNK         0.0000
     13 O1         22.4310   -1.4890   -4.5620 O.3       1 UNK         0.0000
     14 O2         20.9820   -1.9860   -6.1560 O.2       1 UNK         0.0000
     15 N2         20.6050   -0.0140   -3.2330 N.3       1 UNK         0.0000
     16 H1         17.8720   -0.3150   -1.6890 H         1 UNK         0.0000
     17 H2         16.4520    0.9850   -0.1840 H         1 UNK         0.0000
     18 H3         14.8720    2.6420   -1.0830 H         1 UNK         0.0000
     19 H4         14.7000    3.0160   -3.5010 H         1 UNK         0.0000
     20 H5         15.8290    2.0910   -5.9770 H         1 UNK         0.0000
     21 H6         17.5780    0.4030   -6.7350 H         1 UNK         0.0000
     22 H7         18.7370   -1.6380   -3.6890 H         1 UNK         0.0000
     23 H8         18.7450   -1.6830   -5.4690 H         1 UNK         0.0000
     24 H9         20.1960    0.5170   -5.2230 H         1 UNK         0.0000
     25 H10        22.9260   -0.6820   -4.3680 H         1 UNK         0.0000
     26 H11        21.5600    0.3110   -3.1960 H         1 UNK         0.0000
     27 H12        19.9740    0.6760   -2.8550 H         1 UNK         0.0000
@<TRIPOS>BOND
     1    1    2 ar
     2    1    6 ar
     3    1   16 1
     4    2    3 ar
     5    2   17 1
     6    3    4 ar
     7    3   18 1
     8    4    5 ar
     9    4   19 1
    10    5    6 ar
    11    5    7 1
    12    6    9 1
    13    7    8 1
    14    7   20 1
    15    8    9 2
    16    8   21 1
    17    9   10 1
    18   10   11 1
    19   10   22 1
    20   10   23 1
    21   11   12 1
    22   11   15 1
    23   11   24 1
    24   12   13 1
    25   12   14 2
    26   13   25 1
    27   15   26 1
    28   15   27 1
