@<TRIPOS>MOLECULE
Molecule from ChemDoodle Web Components
   27    28     0     0     0
SMALL
NO_CHARGES

@<TRIPOS>ATOM
      1 C1         19.0700   -1.3610    2.1770 C.ar      1 UNK         0.0000
      2 C2         19.4510   -2.1070    3.2570 C.ar      1 UNK         0.0000
      3 C3         18.8400   -1.9260    4.4900 C.ar      1 UNK         0.0000
      4 C4         17.8410   -0.9920    4.6490 C.ar      1 UNK         0.0000
      5 C5         17.4370   -0.2200    3.5640 C.ar      1 UNK         0.0000
      6 C6         18.0580   -0.4080    2.3160 C.ar      1 UNK         0.0000
      7 N1         16.4930    0.7690    3.4030 N.pl3     1 UNK         0.0000
      8 C7         16.4960    1.2090    2.1070 C.2       1 UNK         0.0000
      9 C8         17.4190    0.5390    1.3990 C.2       1 UNK         0.0000
     10 C9         17.7400    0.7300   -0.0610 C.3       1 UNK         0.0000
     11 C10        17.0760    2.0120   -0.5660 C.3       1 UNK         0.0000
     12 C11        16.4200    1.7480   -1.8960 C.2       1 UNK         0.0000
     13 O1         16.1700    0.4870   -2.2820 O.3       1 UNK         0.0000
     14 O2         16.1190    2.6720   -2.6160 O.2       1 UNK         0.0000
     15 N2         18.0940    3.0600   -0.7220 N.3       1 UNK         0.0000
     16 H1         19.5480   -1.5070    1.2210 H         1 UNK         0.0000
     17 H2         20.2340   -2.8430    3.1490 H         1 UNK         0.0000
     18 H3         19.1520   -2.5230    5.3340 H         1 UNK         0.0000
     19 H4         17.3720   -0.8580    5.6130 H         1 UNK         0.0000
     20 H5         15.9120    1.1040    4.1040 H         1 UNK         0.0000
     21 H6         15.8530    1.9820    1.7140 H         1 UNK         0.0000
     22 H7         18.8190    0.8040   -0.1890 H         1 UNK         0.0000
     23 H8         17.3630   -0.1210   -0.6290 H         1 UNK         0.0000
     24 H9         16.3250    2.3410    0.1520 H         1 UNK         0.0000
     25 H10        16.1360    0.3180   -3.2330 H         1 UNK         0.0000
     26 H11        18.9760    2.6670   -1.0180 H         1 UNK         0.0000
     27 H12        17.7840    3.7730   -1.3650 H         1 UNK         0.0000
@<TRIPOS>BOND
     1    1    2 ar
     2    1    6 ar
     3    1   16 1
     4    2    3 ar
     5    2   17 1
     6    3    4 ar
     7    3   18 1
     8    4    5 ar
     9    4   19 1
    10    5    6 ar
    11    5    7 1
    12    6    9 1
    13    7    8 1
    14    7   20 1
    15    8    9 2
    16    8   21 1
    17    9   10 1
    18   10   11 1
    19   10   22 1
    20   10   23 1
    21   11   12 1
    22   11   15 1
    23   11   24 1
    24   12   13 1
    25   12   14 2
    26   13   25 1
    27   15   26 1
    28   15   27 1
