@<TRIPOS>MOLECULE
Molecule from ChemDoodle Web Components
   27    28     0     0     0
SMALL
NO_CHARGES

@<TRIPOS>ATOM
      1 C1         17.5090    0.3390   -0.8130 C.ar      1 UNK         0.0000
      2 C2         17.4860    0.3790    0.5530 C.ar      1 UNK         0.0000
      3 C3         16.5940    1.2080    1.2190 C.ar      1 UNK         0.0000
      4 C4         15.7170    2.0050    0.5170 C.ar      1 UNK         0.0000
      5 C5         15.7230    1.9810   -0.8740 C.ar      1 UNK         0.0000
      6 C6         16.6290    1.1390   -1.5450 C.ar      1 UNK         0.0000
      7 N1         14.9920    2.6400   -1.8370 N.pl3     1 UNK         0.0000
      8 C7         15.4010    2.2460   -3.0820 C.2       1 UNK         0.0000
      9 C8         16.3870    1.3420   -2.9750 C.2       1 UNK         0.0000
     10 C9         17.1110    0.6680   -4.1120 C.3       1 UNK         0.0000
     11 C10        16.1680    0.5290   -5.3080 C.3       1 UNK         0.0000
     12 C11        15.8660   -0.9280   -5.5440 C.2       1 UNK         0.0000
     13 O1         14.5960   -1.3330   -5.7000 O.3       1 UNK         0.0000
     14 O2         16.7670   -1.7320   -5.5940 O.2       1 UNK         0.0000
     15 N2         16.8070    1.0970   -6.5030 N.3       1 UNK         0.0000
     16 H1         18.2050   -0.3080   -1.3250 H         1 UNK         0.0000
     17 H2         18.1690   -0.2390    1.1180 H         1 UNK         0.0000
     18 H3         16.5880    1.2290    2.2990 H         1 UNK         0.0000
     19 H4         15.0270    2.6460    1.0450 H         1 UNK         0.0000
     20 H5         14.2910    3.2860   -1.6590 H         1 UNK         0.0000
     21 H6         14.9920    2.6110   -4.0130 H         1 UNK         0.0000
     22 H7         17.9760    1.2660   -4.3970 H         1 UNK         0.0000
     23 H8         17.4420   -0.3220   -3.7950 H         1 UNK         0.0000
     24 H9         15.2410    1.0650   -5.1040 H         1 UNK         0.0000
     25 H10        14.4400   -2.2870   -5.7270 H         1 UNK         0.0000
     26 H11        16.5920    0.5480   -7.3230 H         1 UNK         0.0000
     27 H12        16.5400    2.0610   -6.6340 H         1 UNK         0.0000
@<TRIPOS>BOND
     1    1    2 ar
     2    1    6 ar
     3    1   16 1
     4    2    3 ar
     5    2   17 1
     6    3    4 ar
     7    3   18 1
     8    4    5 ar
     9    4   19 1
    10    5    6 ar
    11    5    7 1
    12    6    9 1
    13    7    8 1
    14    7   20 1
    15    8    9 2
    16    8   21 1
    17    9   10 1
    18   10   11 1
    19   10   22 1
    20   10   23 1
    21   11   12 1
    22   11   15 1
    23   11   24 1
    24   12   13 1
    25   12   14 2
    26   13   25 1
    27   15   26 1
    28   15   27 1
