@<TRIPOS>MOLECULE
Molecule from ChemDoodle Web Components
   27    28     0     0     0
SMALL
NO_CHARGES

@<TRIPOS>ATOM
      1 C1         16.9050    1.9390   -2.3650 C.ar      1 UNK         0.0000
      2 C2         16.6450    2.4990   -1.1460 C.ar      1 UNK         0.0000
      3 C3         16.7120    1.7340    0.0110 C.ar      1 UNK         0.0000
      4 C4         17.0410    0.3990   -0.0480 C.ar      1 UNK         0.0000
      5 C5         17.3100   -0.1930   -1.2780 C.ar      1 UNK         0.0000
      6 C6         17.2410    0.5860   -2.4470 C.ar      1 UNK         0.0000
      7 N1         17.6580   -1.4690   -1.6600 N.pl3     1 UNK         0.0000
      8 C7         17.8100   -1.5230   -3.0200 C.2       1 UNK         0.0000
      9 C8         17.5720   -0.3150   -3.5540 C.2       1 UNK         0.0000
     10 C9         17.6290    0.0440   -5.0170 C.3       1 UNK         0.0000
     11 C10        16.2110    0.2810   -5.5390 C.3       1 UNK         0.0000
     12 C11        15.6790   -0.9920   -6.1450 C.2       1 UNK         0.0000
     13 O1         16.3480   -1.5900   -7.1430 O.3       1 UNK         0.0000
     14 O2         14.6500   -1.4740   -5.7330 O.2       1 UNK         0.0000
     15 N2         16.2360    1.3360   -6.5610 N.3       1 UNK         0.0000
     16 H1         16.8520    2.5390   -3.2600 H         1 UNK         0.0000
     17 H2         16.3840    3.5450   -1.0830 H         1 UNK         0.0000
     18 H3         16.5040    2.1920    0.9670 H         1 UNK         0.0000
     19 H4         17.0910   -0.1880    0.8570 H         1 UNK         0.0000
     20 H5         17.7780   -2.2190   -1.0570 H         1 UNK         0.0000
     21 H6         18.0800   -2.4070   -3.5780 H         1 UNK         0.0000
     22 H7         18.2200    0.9490   -5.1460 H         1 UNK         0.0000
     23 H8         18.0880   -0.7740   -5.5740 H         1 UNK         0.0000
     24 H9         15.5660    0.5890   -4.7160 H         1 UNK         0.0000
     25 H10        15.9710   -1.5170   -8.0300 H         1 UNK         0.0000
     26 H11        15.7220    2.1490   -6.2550 H         1 UNK         0.0000
     27 H12        17.1840    1.5800   -6.8070 H         1 UNK         0.0000
@<TRIPOS>BOND
     1    1    2 ar
     2    1    6 ar
     3    1   16 1
     4    2    3 ar
     5    2   17 1
     6    3    4 ar
     7    3   18 1
     8    4    5 ar
     9    4   19 1
    10    5    6 ar
    11    5    7 1
    12    6    9 1
    13    7    8 1
    14    7   20 1
    15    8    9 2
    16    8   21 1
    17    9   10 1
    18   10   11 1
    19   10   22 1
    20   10   23 1
    21   11   12 1
    22   11   15 1
    23   11   24 1
    24   12   13 1
    25   12   14 2
    26   13   25 1
    27   15   26 1
    28   15   27 1
