@<TRIPOS>MOLECULE
Molecule from ChemDoodle Web Components
   27    28     0     0     0
SMALL
NO_CHARGES

@<TRIPOS>ATOM
      1 C1         16.9040    0.5770   -1.5160 C.ar      1 UNK         0.0000
      2 C2         16.1980    1.2070   -0.5290 C.ar      1 UNK         0.0000
      3 C3         15.2730    2.1930   -0.8430 C.ar      1 UNK         0.0000
      4 C4         15.0490    2.5540   -2.1530 C.ar      1 UNK         0.0000
      5 C5         15.7560    1.9270   -3.1750 C.ar      1 UNK         0.0000
      6 C6         16.6920    0.9280   -2.8510 C.ar      1 UNK         0.0000
      7 N1         15.7600    2.0590   -4.5450 N.pl3     1 UNK         0.0000
      8 C7         16.6590    1.1860   -5.0940 C.2       1 UNK         0.0000
      9 C8         17.2560    0.4740   -4.1250 C.2       1 UNK         0.0000
     10 C9         18.3090   -0.5870   -4.3120 C.3       1 UNK         0.0000
     11 C10        17.8330   -1.6020   -5.3530 C.3       1 UNK         0.0000
     12 C11        16.8340   -2.5380   -4.7220 C.2       1 UNK         0.0000
     13 O1         17.2530   -3.4970   -3.8820 O.3       1 UNK         0.0000
     14 O2         15.6570   -2.4240   -4.9730 O.2       1 UNK         0.0000
     15 N2         18.9820   -2.3730   -5.8460 N.3       1 UNK         0.0000
     16 H1         17.6210   -0.1900   -1.2650 H         1 UNK         0.0000
     17 H2         16.3640    0.9350    0.5030 H         1 UNK         0.0000
     18 H3         14.7230    2.6810   -0.0530 H         1 UNK         0.0000
     19 H4         14.3270    3.3220   -2.3870 H         1 UNK         0.0000
     20 H5         15.2080    2.6790   -5.0460 H         1 UNK         0.0000
     21 H6         16.8590    1.0850   -6.1500 H         1 UNK         0.0000
     22 H7         19.2350   -0.1240   -4.6530 H         1 UNK         0.0000
     23 H8         18.4840   -1.0960   -3.3630 H         1 UNK         0.0000
     24 H9         17.3640   -1.0770   -6.1860 H         1 UNK         0.0000
     25 H10        17.0750   -4.4130   -4.1380 H         1 UNK         0.0000
     26 H11        19.8400   -1.8520   -5.7370 H         1 UNK         0.0000
     27 H12        19.0420   -3.2680   -5.3850 H         1 UNK         0.0000
@<TRIPOS>BOND
     1    1    2 ar
     2    1    6 ar
     3    1   16 1
     4    2    3 ar
     5    2   17 1
     6    3    4 ar
     7    3   18 1
     8    4    5 ar
     9    4   19 1
    10    5    6 ar
    11    5    7 1
    12    6    9 1
    13    7    8 1
    14    7   20 1
    15    8    9 2
    16    8   21 1
    17    9   10 1
    18   10   11 1
    19   10   22 1
    20   10   23 1
    21   11   12 1
    22   11   15 1
    23   11   24 1
    24   12   13 1
    25   12   14 2
    26   13   25 1
    27   15   26 1
    28   15   27 1
