@<TRIPOS>MOLECULE
Molecule from ChemDoodle Web Components
   27    28     0     0     0
SMALL
NO_CHARGES

@<TRIPOS>ATOM
      1 C1         18.6650   -1.5420    3.0940 C.ar      1 UNK         0.0000
      2 C2         18.4010   -1.5350    4.4350 C.ar      1 UNK         0.0000
      3 C3         17.5020   -0.6240    4.9720 C.ar      1 UNK         0.0000
      4 C4         16.8600    0.2880    4.1660 C.ar      1 UNK         0.0000
      5 C5         17.1130    0.3000    2.7970 C.ar      1 UNK         0.0000
      6 C6         18.0250   -0.6250    2.2570 C.ar      1 UNK         0.0000
      7 N1         16.6450    1.0660    1.7530 N.pl3     1 UNK         0.0000
      8 C7         17.2250    0.6600    0.5820 C.2       1 UNK         0.0000
      9 C8         18.0690   -0.3570    0.8180 C.2       1 UNK         0.0000
     10 C9         18.9060   -1.0820   -0.2040 C.3       1 UNK         0.0000
     11 C10        18.6210   -0.5110   -1.5950 C.3       1 UNK         0.0000
     12 C11        17.8880   -1.5380   -2.4190 C.2       1 UNK         0.0000
     13 O1         16.5460   -1.5650   -2.4170 O.3       1 UNK         0.0000
     14 O2         18.5080   -2.3370   -3.0810 O.2       1 UNK         0.0000
     15 N2         19.8900   -0.1710   -2.2530 N.3       1 UNK         0.0000
     16 H1         19.3650   -2.2530    2.6820 H         1 UNK         0.0000
     17 H2         18.8970   -2.2440    5.0810 H         1 UNK         0.0000
     18 H3         17.3040   -0.6320    6.0340 H         1 UNK         0.0000
     19 H4         16.1610    0.9930    4.5930 H         1 UNK         0.0000
     20 H5         16.0000    1.7860    1.8350 H         1 UNK         0.0000
     21 H6         17.0330    1.0950   -0.3880 H         1 UNK         0.0000
     22 H7         19.9610   -0.9530    0.0330 H         1 UNK         0.0000
     23 H8         18.6570   -2.1440   -0.1900 H         1 UNK         0.0000
     24 H9         18.0090    0.3860   -1.5020 H         1 UNK         0.0000
     25 H10        16.1070   -1.5300   -1.5570 H         1 UNK         0.0000
     26 H11        20.6180   -0.8210   -1.9930 H         1 UNK         0.0000
     27 H12        19.7800   -0.1360   -3.2550 H         1 UNK         0.0000
@<TRIPOS>BOND
     1    1    2 ar
     2    1    6 ar
     3    1   16 1
     4    2    3 ar
     5    2   17 1
     6    3    4 ar
     7    3   18 1
     8    4    5 ar
     9    4   19 1
    10    5    6 ar
    11    5    7 1
    12    6    9 1
    13    7    8 1
    14    7   20 1
    15    8    9 2
    16    8   21 1
    17    9   10 1
    18   10   11 1
    19   10   22 1
    20   10   23 1
    21   11   12 1
    22   11   15 1
    23   11   24 1
    24   12   13 1
    25   12   14 2
    26   13   25 1
    27   15   26 1
    28   15   27 1
