@<TRIPOS>MOLECULE
Molecule from ChemDoodle Web Components
   27    28     0     0     0
SMALL
NO_CHARGES

@<TRIPOS>ATOM
      1 C1         17.1450    0.8070   -0.9680 C.ar      1 UNK         0.0000
      2 C2         16.4920    1.3160    0.1200 C.ar      1 UNK         0.0000
      3 C3         15.4180    2.1810   -0.0420 C.ar      1 UNK         0.0000
      4 C4         14.9910    2.5420   -1.3000 C.ar      1 UNK         0.0000
      5 C5         15.6400    2.0360   -2.4230 C.ar      1 UNK         0.0000
      6 C6         16.7280    1.1610   -2.2530 C.ar      1 UNK         0.0000
      7 N1         15.4590    2.2020   -3.7770 N.pl3     1 UNK         0.0000
      8 C7         16.3870    1.4670   -4.4640 C.2       1 UNK         0.0000
      9 C8         17.1830    0.8150   -3.6020 C.2       1 UNK         0.0000
     10 C9         18.3310   -0.0950   -3.9550 C.3       1 UNK         0.0000
     11 C10        17.8090   -1.5170   -4.1640 C.3       1 UNK         0.0000
     12 C11        16.9340   -1.5570   -5.3900 C.2       1 UNK         0.0000
     13 O1         15.6390   -1.8940   -5.2790 O.3       1 UNK         0.0000
     14 O2         17.3970   -1.2840   -6.4730 O.2       1 UNK         0.0000
     15 N2         17.0260   -1.9290   -2.9910 N.3       1 UNK         0.0000
     16 H1         17.9780    0.1350   -0.8350 H         1 UNK         0.0000
     17 H2         16.8160    1.0430    1.1140 H         1 UNK         0.0000
     18 H3         14.9120    2.5740    0.8270 H         1 UNK         0.0000
     19 H4         14.1540    3.2150   -1.4160 H         1 UNK         0.0000
     20 H5         14.7760    2.7570   -4.1850 H         1 UNK         0.0000
     21 H6         16.4670    1.4190   -5.5400 H         1 UNK         0.0000
     22 H7         18.8060    0.2570   -4.8710 H         1 UNK         0.0000
     23 H8         19.0600   -0.0920   -3.1430 H         1 UNK         0.0000
     24 H9         18.6500   -2.1990   -4.2950 H         1 UNK         0.0000
     25 H10        15.2830   -1.9770   -4.3840 H         1 UNK         0.0000
     26 H11        16.0500   -2.0350   -3.2260 H         1 UNK         0.0000
     27 H12        17.3950   -2.7770   -2.5890 H         1 UNK         0.0000
@<TRIPOS>BOND
     1    1    2 ar
     2    1    6 ar
     3    1   16 1
     4    2    3 ar
     5    2   17 1
     6    3    4 ar
     7    3   18 1
     8    4    5 ar
     9    4   19 1
    10    5    6 ar
    11    5    7 1
    12    6    9 1
    13    7    8 1
    14    7   20 1
    15    8    9 2
    16    8   21 1
    17    9   10 1
    18   10   11 1
    19   10   22 1
    20   10   23 1
    21   11   12 1
    22   11   15 1
    23   11   24 1
    24   12   13 1
    25   12   14 2
    26   13   25 1
    27   15   26 1
    28   15   27 1
