# created with PyMOL 2.5.7
@<TRIPOS>MOLECULE
14079
8 8 1                   
SMALL
USER_CHARGES
@<TRIPOS>ATOM
1	   O	39.264	-32.958	-19.893	O.2	1	UNK0	0.000	
2	   N	38.506	-30.933	-22.791	N.pl3	1	UNK0	0.000	
3	   C	39.205	-31.573	-21.801	C.2	1	UNK0	0.000	
4	   C	40.541	-31.285	-21.975	C.2	1	UNK0	0.000	
5	   C	38.596	-32.381	-20.792	C.2	1	UNK0	0.000	
6	   C	39.375	-30.242	-23.594	C.2	1	UNK0	0.000	
7	   C	40.649	-30.444	-23.110	C.2	1	UNK0	0.000	
8	   C	37.073	-32.590	-20.756	C.3	1	UNK0	0.000	
@<TRIPOS>BOND
1 1 5 2
2 2 3 1
3 2 6 1
4 3 4 2
5 3 5 1
6 4 7 1
7 5 8 1
8 6 7 2
@<TRIPOS>SUBSTRUCTURE
1	UNK0	1	GROUP	1 ****	UNK
