# created with PyMOL 2.5.7
@<TRIPOS>MOLECULE
tryptophan
15 16 1                 
SMALL
USER_CHARGES
@<TRIPOS>ATOM
1	  C1	40.631	-28.891	-24.920	C.2	1	UNL1	0.000	
2	  N1	37.720	-30.585	-22.573	N.2	1	UNL1	0.000	
3	  O1	38.200	-32.598	-18.924	O.co2	1	UNL1	0.000	
4	  C2	39.289	-28.582	-25.232	C.2	1	UNL1	0.000	
5	  N2	39.902	-33.738	-20.862	N.3	1	UNL1	0.000	
6	  O2	39.510	-30.835	-18.353	O.co2	1	UNL1	0.000	
7	  C3	38.237	-29.121	-24.470	C.2	1	UNL1	0.000	
8	  C4	38.566	-29.959	-23.408	C.2	1	UNL1	0.000	
9	  C5	39.870	-30.257	-23.103	C.2	1	UNL1	0.000	
10	  C6	40.933	-29.743	-23.843	C.2	1	UNL1	0.000	
11	  C7	39.839	-31.110	-22.017	C.2	1	UNL1	0.000	
12	  C8	38.492	-31.296	-21.724	C.2	1	UNL1	0.000	
13	  C9	41.000	-31.773	-21.334	C.3	1	UNL1	0.000	
14	 C10	40.114	-32.431	-20.243	C.3	1	UNL1	0.000	
15	 C11	39.329	-32.053	-19.014	C.2	1	UNL1	0.000	
@<TRIPOS>BOND
1 1 4 ar
2 1 10 ar
3 2 8 ar
4 2 12 ar
5 3 15 2
6 4 7 ar
7 5 14 1
8 6 15 1
9 7 8 ar
10 8 9 ar
11 9 10 ar
12 9 11 ar
13 11 12 ar
14 11 13 1
15 13 14 1
16 14 15 1
@<TRIPOS>SUBSTRUCTURE
1	UNL1	1	GROUP	1 ****	UNL
