# created with PyMOL 2.5.7
@<TRIPOS>MOLECULE
TRP
15 16 1                 
SMALL
USER_CHARGES
@<TRIPOS>ATOM
1	   N	12.652	-12.319	2.856	N.3	1	UNK0	0.000	
2	   C	12.758	-11.768	1.512	C.3	1	UNK0	0.000	
3	   C	13.768	-11.478	1.282	C.2	1	UNK0	0.000	
4	   O	15.040	-10.970	1.565	O.co2	1	UNK0	0.000	
5	   C	11.572	-10.797	1.206	C.3	1	UNK0	0.000	
6	   C	11.918	-9.310	1.243	C.2	1	UNK0	0.000	
7	   C	13.158	-8.767	1.373	C.2	1	UNK0	0.000	
8	   C	11.002	-8.209	1.173	C.2	1	UNK0	0.000	
9	   N	13.080	-7.394	1.390	N.pl3	1	UNK0	0.000	
10	   C	11.765	-7.024	1.272	C.2	1	UNK0	0.000	
11	   C	9.610	-8.109	1.044	C.2	1	UNK0	0.000	
12	   C	11.186	-5.750	1.247	C.2	1	UNK0	0.000	
13	   C	9.029	-6.838	1.019	C.2	1	UNK0	0.000	
14	   C	9.822	-5.676	1.121	C.2	1	UNK0	0.000	
15	   O	14.055	-10.707	-0.052	O.co2	1	UNK0	0.000	
@<TRIPOS>BOND
1 1 2 1
2 2 3 1
3 2 5 1
4 3 4 2
5 3 15 1
6 5 6 1
7 6 7 2
8 6 8 1
9 7 9 1
10 8 10 2
11 8 11 1
12 9 10 1
13 10 12 1
14 11 13 2
15 12 14 2
16 13 14 1
@<TRIPOS>SUBSTRUCTURE
1	UNK0	1	GROUP	1 ****	UNK
