# created with PyMOL 2.5.7
@<TRIPOS>MOLECULE
tryptophan
27 28 1                 
SMALL
USER_CHARGES
@<TRIPOS>ATOM
1	  C1	-1.889	-16.674	3.568	C.2	1	UNL1	0.000	
2	  N1	0.734	-19.740	4.337	N.2	1	UNL1	0.000	
3	  O1	3.460	-16.029	-0.392	O.co2	1	UNL1	0.000	
4	  C2	-2.344	-17.718	4.404	C.2	1	UNL1	0.000	
5	  N2	1.091	-17.653	0.029	N.3	1	UNL1	0.000	
6	  O2	4.510	-18.037	-0.714	O.3	1	UNL1	0.000	
7	  C3	-1.501	-18.800	4.716	C.2	1	UNL1	0.000	
8	  C4	-0.215	-18.801	4.178	C.2	1	UNL1	0.000	
9	  C5	0.228	-17.786	3.369	C.2	1	UNL1	0.000	
10	  C6	-0.586	-16.702	3.037	C.2	1	UNL1	0.000	
11	  C7	1.524	-18.101	3.007	C.2	1	UNL1	0.000	
12	  C8	1.799	-19.321	3.618	C.2	1	UNL1	0.000	
13	  C9	2.434	-17.343	2.083	C.3	1	UNL1	0.000	
14	 C10	2.393	-17.908	0.650	C.3	1	UNL1	0.000	
15	 C11	3.480	-17.270	-0.176	C.2	1	UNL1	0.000	
16	  H1	-2.547	-15.848	3.332	 H	1	UNL1	0.000	
17	  H2	-3.349	-17.686	4.805	 H	1	UNL1	0.000	
18	  H3	-1.843	-19.607	5.352	 H	1	UNL1	0.000	
19	  H4	-0.235	-15.908	2.391	 H	1	UNL1	0.000	
20	  H5	2.725	-19.875	3.532	 H	1	UNL1	0.000	
21	  H6	0.662	-20.622	4.892	 H	1	UNL1	0.000	
22	  H7	3.470	-17.418	2.481	 H	1	UNL1	0.000	
23	  H8	2.158	-16.267	2.078	 H	1	UNL1	0.000	
24	  H9	2.571	-19.007	0.692	 H	1	UNL1	0.000	
25	 H10	4.559	-19.037	-0.562	 H	1	UNL1	0.000	
26	 H11	1.118	-18.014	-0.953	 H	1	UNL1	0.000	
27	 H12	0.370	-18.232	0.518	 H	1	UNL1	0.000	
@<TRIPOS>BOND
1 1 4 ar
2 1 10 ar
3 1 16 1
4 2 21 1
5 4 7 ar
6 4 17 1
7 5 26 1
8 5 27 1
9 6 25 1
10 7 8 ar
11 7 18 1
12 2 8 ar
13 8 9 ar
14 9 10 ar
15 9 11 ar
16 10 19 1
17 11 12 ar
18 11 13 1
19 2 12 ar
20 12 20 1
21 13 14 1
22 13 22 1
23 13 23 1
24 5 14 1
25 14 15 1
26 14 24 1
27 3 15 2
28 6 15 1
@<TRIPOS>SUBSTRUCTURE
1	UNL1	1	GROUP	1 ****	UNL
