# created with PyMOL 2.5.7
@<TRIPOS>MOLECULE
TRP
27 28 1                 
SMALL
USER_CHARGES
@<TRIPOS>ATOM
1	   N	38.431	-29.336	1.479	N.3	1	UNK0	0.000	
2	   C	38.123	-28.113	0.750	C.3	1	UNK0	0.000	
3	   C	37.311	-28.437	-0.524	C.2	1	UNK0	0.000	
4	   O	36.662	-27.556	-1.087	O.co2	1	UNK0	0.000	
5	   C	39.407	-27.375	0.342	C.3	1	UNK0	0.000	
6	   C	40.398	-27.121	1.468	C.2	1	UNK0	0.000	
7	   C	41.476	-27.884	1.793	C.2	1	UNK0	0.000	
8	   C	40.369	-26.043	2.413	C.2	1	UNK0	0.000	
9	   N	42.126	-27.354	2.883	N.pl3	1	UNK0	0.000	
10	   C	41.464	-26.223	3.286	C.2	1	UNK0	0.000	
11	   C	39.519	-24.946	2.610	C.2	1	UNK0	0.000	
12	   C	41.737	-25.349	4.345	C.2	1	UNK0	0.000	
13	   C	39.788	-24.072	3.667	C.2	1	UNK0	0.000	
14	   C	40.891	-24.283	4.520	C.2	1	UNK0	0.000	
15	   O	37.218	-29.378	-0.926	O.3	1	UNK0	0.000	
16	   H	38.967	-29.123	2.320	 H	1	UNK0	0.000	
17	   H	38.905	-30.021	0.889	 H	1	UNK0	0.000	
18	   H	37.524	-27.461	1.426	 H	1	UNK0	0.000	
19	   H	39.908	-27.915	-0.495	 H	1	UNK0	0.000	
20	   H	39.152	-26.417	-0.167	 H	1	UNK0	0.000	
21	   H	41.778	-28.797	1.252	 H	1	UNK0	0.000	
22	   H	42.963	-27.738	3.321	 H	1	UNK0	0.000	
23	   H	38.655	-24.774	1.946	 H	1	UNK0	0.000	
24	   H	42.594	-25.497	5.022	 H	1	UNK0	0.000	
25	   H	39.123	-23.207	3.829	 H	1	UNK0	0.000	
26	   H	41.099	-23.591	5.352	 H	1	UNK0	0.000	
27	   H	36.718	-29.578	-1.710	 H	1	UNK0	0.000	
@<TRIPOS>BOND
1 1 2 1
2 1 16 1
3 1 17 1
4 2 3 1
5 2 5 1
6 2 18 1
7 3 4 2
8 3 15 1
9 5 6 1
10 5 19 1
11 5 20 1
12 6 7 2
13 6 8 1
14 7 9 1
15 7 21 1
16 8 10 2
17 8 11 1
18 9 10 1
19 9 22 1
20 10 12 1
21 11 13 2
22 11 23 1
23 12 14 2
24 12 24 1
25 13 14 1
26 13 25 1
27 14 26 1
28 15 27 1
@<TRIPOS>SUBSTRUCTURE
1	UNK0	1	GROUP	1 ****	UNK
