# created with PyMOL 2.5.7
@<TRIPOS>MOLECULE
TRP
15 16 1                 
SMALL
USER_CHARGES
@<TRIPOS>ATOM
1	   N	0.263	32.833	-8.743	N.3	1	UNK0	0.000	
2	   C	1.697	33.000	-8.939	C.3	1	UNK0	0.000	
3	   C	2.479	31.996	-8.063	C.2	1	UNK0	0.000	
4	   O	3.652	31.728	-8.322	O.co2	1	UNK0	0.000	
5	   C	2.143	34.424	-8.574	C.3	1	UNK0	0.000	
6	   C	3.257	34.998	-9.437	C.2	1	UNK0	0.000	
7	   C	3.114	35.804	-10.523	C.2	1	UNK0	0.000	
8	   C	4.666	34.780	-9.281	C.2	1	UNK0	0.000	
9	   N	4.344	36.105	-11.061	N.pl3	1	UNK0	0.000	
10	   C	5.315	35.485	-10.318	C.2	1	UNK0	0.000	
11	   C	5.441	34.050	-8.369	C.2	1	UNK0	0.000	
12	   C	6.706	35.485	-10.474	C.2	1	UNK0	0.000	
13	   C	6.830	34.047	-8.524	C.2	1	UNK0	0.000	
14	   C	7.445	34.763	-9.571	C.2	1	UNK0	0.000	
15	   O	2.069	31.469	-7.282	O.co2	1	UNK0	0.000	
@<TRIPOS>BOND
1 1 2 1
2 2 3 1
3 2 5 1
4 3 4 2
5 3 15 1
6 5 6 1
7 6 7 2
8 6 8 1
9 7 9 1
10 8 10 2
11 8 11 1
12 9 10 1
13 10 12 1
14 11 13 2
15 12 14 2
16 13 14 1
@<TRIPOS>SUBSTRUCTURE
1	UNK0	1	GROUP	1 ****	UNK
