# created with PyMOL 2.5.7
@<TRIPOS>MOLECULE
TRP
15 16 1                 
SMALL
USER_CHARGES
@<TRIPOS>ATOM
1	   N	14.810	-9.104	3.667	N.3	1	UNK0	0.000	
2	   C	13.958	-9.848	2.750	C.3	1	UNK0	0.000	
3	   C	14.575	-10.233	1.701	C.2	1	UNK0	0.000	
4	   O	15.552	-10.586	1.412	O.co2	1	UNK0	0.000	
5	   C	12.674	-9.064	2.428	C.3	1	UNK0	0.000	
6	   C	12.864	-7.565	2.186	C.2	1	UNK0	0.000	
7	   C	14.030	-6.869	2.258	C.2	1	UNK0	0.000	
8	   C	11.845	-6.610	1.861	C.2	1	UNK0	0.000	
9	   N	13.808	-5.536	1.999	N.pl3	1	UNK0	0.000	
10	   C	12.472	-5.350	1.755	C.2	1	UNK0	0.000	
11	   C	10.461	-6.697	1.656	C.2	1	UNK0	0.000	
12	   C	11.767	-4.178	1.454	C.2	1	UNK0	0.000	
13	   C	9.754	-5.530	1.356	C.2	1	UNK0	0.000	
14	   C	10.413	-4.287	1.259	C.2	1	UNK0	0.000	
15	   O	14.225	-10.120	0.492	O.co2	1	UNK0	0.000	
@<TRIPOS>BOND
1 1 2 1
2 2 3 1
3 2 5 1
4 3 4 2
5 3 15 1
6 5 6 1
7 6 7 2
8 6 8 1
9 7 9 1
10 8 10 2
11 8 11 1
12 9 10 1
13 10 12 1
14 11 13 2
15 12 14 2
16 13 14 1
@<TRIPOS>SUBSTRUCTURE
1	UNK0	1	GROUP	1 ****	UNK
