@<TRIPOS>MOLECULE
Molecule from ChemDoodle Web Components
   15    15     0     0     0
SMALL
NO_CHARGES

@<TRIPOS>ATOM
      1 N1         28.6630  -26.0970  -23.3870 N.pl3     1 UNK         0.0000
      2 C1         28.1750  -25.8760  -24.6250 C.2       1 UNK         0.0000
      3 C2         28.5490  -24.6380  -25.0340 C.2       1 UNK         0.0000
      4 C3         29.2970  -24.0560  -24.0100 C.2       1 UNK         0.0000
      5 C4         29.3590  -24.9790  -22.9810 C.2       1 UNK         0.0000
      6 C5         30.0210  -24.8090  -21.7430 C.2       1 UNK         0.0000
      7 C6         31.1400  -25.7400  -21.3530 C.3       1 UNK         0.0000
      8 O1         29.6870  -23.9130  -20.9950 O.2       1 UNK         0.0000
      9 H1         28.5420  -26.9070  -22.8680 H         1 UNK         0.0000
     10 H2         27.5840  -26.5750  -25.2000 H         1 UNK         0.0000
     11 H3         28.3090  -24.1840  -25.9840 H         1 UNK         0.0000
     12 H4         29.7440  -23.0730  -24.0200 H         1 UNK         0.0000
     13 H5         30.7810  -26.4440  -20.6030 H         1 UNK         0.0000
     14 H6         31.4800  -26.2870  -22.2320 H         1 UNK         0.0000
     15 H7         31.9670  -25.1610  -20.9430 H         1 UNK         0.0000
@<TRIPOS>BOND
     1    1    2 1
     2    1    5 1
     3    1    9 1
     4    2    3 2
     5    2   10 1
     6    3    4 1
     7    3   11 1
     8    4    5 2
     9    4   12 1
    10    5    6 1
    11    6    7 1
    12    6    8 2
    13    7   13 1
    14    7   14 1
    15    7   15 1
