@<TRIPOS>MOLECULE
Molecule from ChemDoodle Web Components
   15    15     0     0     0
SMALL
NO_CHARGES

@<TRIPOS>ATOM
      1 N1         28.0390  -28.5160  -28.9680 N.pl3     1 UNK         0.0000
      2 C1         28.5250  -29.1540  -30.0520 C.2       1 UNK         0.0000
      3 C2         29.7820  -28.7070  -30.3020 C.2       1 UNK         0.0000
      4 C3         30.0950  -27.7470  -29.3390 C.2       1 UNK         0.0000
      5 C4         28.9930  -27.6330  -28.5090 C.2       1 UNK         0.0000
      6 C5         28.8700  -26.7740  -27.3930 C.2       1 UNK         0.0000
      7 C6         29.2390  -25.3180  -27.5190 C.3       1 UNK         0.0000
      8 O1         28.4680  -27.2090  -26.3330 O.2       1 UNK         0.0000
      9 H1         27.1620  -28.6550  -28.5760 H         1 UNK         0.0000
     10 H2         28.0010  -29.9030  -30.6270 H         1 UNK         0.0000
     11 H3         30.4250  -29.0370  -31.1050 H         1 UNK         0.0000
     12 H4         31.0210  -27.1980  -29.2560 H         1 UNK         0.0000
     13 H5         29.0400  -24.9800  -28.5360 H         1 UNK         0.0000
     14 H6         28.6460  -24.7310  -26.8180 H         1 UNK         0.0000
     15 H7         30.2980  -25.1910  -27.2940 H         1 UNK         0.0000
@<TRIPOS>BOND
     1    1    2 1
     2    1    5 1
     3    1    9 1
     4    2    3 2
     5    2   10 1
     6    3    4 1
     7    3   11 1
     8    4    5 2
     9    4   12 1
    10    5    6 1
    11    6    7 1
    12    6    8 2
    13    7   13 1
    14    7   14 1
    15    7   15 1
