@<TRIPOS>MOLECULE
Molecule from ChemDoodle Web Components
   15    15     0     0     0
SMALL
NO_CHARGES

@<TRIPOS>ATOM
      1 N1         42.2730  -31.8050  -17.6860 N.pl3     1 UNK         0.0000
      2 C1         41.8110  -32.1710  -18.8990 C.2       1 UNK         0.0000
      3 C2         42.4640  -33.2900  -19.3030 C.2       1 UNK         0.0000
      4 C3         43.3760  -33.6370  -18.3060 C.2       1 UNK         0.0000
      5 C4         43.2500  -32.6970  -17.2980 C.2       1 UNK         0.0000
      6 C5         43.9820  -32.6610  -16.0900 C.2       1 UNK         0.0000
      7 C6         44.7120  -31.4040  -15.6880 C.3       1 UNK         0.0000
      8 O1         44.0250  -33.6420  -15.3750 O.2       1 UNK         0.0000
      9 H1         41.9690  -31.0400  -17.1730 H         1 UNK         0.0000
     10 H2         41.0410  -31.6590  -19.4590 H         1 UNK         0.0000
     11 H3         42.3050  -33.8170  -20.2320 H         1 UNK         0.0000
     12 H4         44.0510  -34.4800  -18.3170 H         1 UNK         0.0000
     13 H5         45.1050  -30.9130  -16.5780 H         1 UNK         0.0000
     14 H6         44.0230  -30.7330  -15.1750 H         1 UNK         0.0000
     15 H7         45.5340  -31.6600  -15.0200 H         1 UNK         0.0000
@<TRIPOS>BOND
     1    1    2 1
     2    1    5 1
     3    1    9 1
     4    2    3 2
     5    2   10 1
     6    3    4 1
     7    3   11 1
     8    4    5 2
     9    4   12 1
    10    5    6 1
    11    6    7 1
    12    6    8 2
    13    7   13 1
    14    7   14 1
    15    7   15 1
