@<TRIPOS>MOLECULE
Molecule from ChemDoodle Web Components
   15    15     0     0     0
SMALL
NO_CHARGES

@<TRIPOS>ATOM
      1 N1         29.2100  -24.6280  -27.4290 N.pl3     1 UNK         0.0000
      2 C1         29.5620  -25.6100  -28.2840 C.2       1 UNK         0.0000
      3 C2         29.5000  -26.8020  -27.6380 C.2       1 UNK         0.0000
      4 C3         29.0980  -26.5570  -26.3240 C.2       1 UNK         0.0000
      5 C4         28.9220  -25.1900  -26.2040 C.2       1 UNK         0.0000
      6 C5         28.5170  -24.4970  -25.0410 C.2       1 UNK         0.0000
      7 C6         28.5600  -25.1850  -23.7000 C.3       1 UNK         0.0000
      8 O1         28.1330  -23.3470  -25.1210 O.2       1 UNK         0.0000
      9 H1         29.1690  -23.6820  -27.6410 H         1 UNK         0.0000
     10 H2         29.8440  -25.4720  -29.3170 H         1 UNK         0.0000
     11 H3         29.7220  -27.7680  -28.0660 H         1 UNK         0.0000
     12 H4         28.9510  -27.2950  -25.5490 H         1 UNK         0.0000
     13 H5         27.5770  -25.1320  -23.2330 H         1 UNK         0.0000
     14 H6         28.8410  -26.2300  -23.8370 H         1 UNK         0.0000
     15 H7         29.2930  -24.6920  -23.0630 H         1 UNK         0.0000
@<TRIPOS>BOND
     1    1    2 1
     2    1    5 1
     3    1    9 1
     4    2    3 2
     5    2   10 1
     6    3    4 1
     7    3   11 1
     8    4    5 2
     9    4   12 1
    10    5    6 1
    11    6    7 1
    12    6    8 2
    13    7   13 1
    14    7   14 1
    15    7   15 1
