@<TRIPOS>MOLECULE
Molecule from ChemDoodle Web Components
   15    15     0     0     0
SMALL
NO_CHARGES

@<TRIPOS>ATOM
      1 N1         28.9730  -23.9020  -26.1700 N.pl3     1 UNK         0.0000
      2 C1         28.5400  -23.7470  -24.9030 C.2       1 UNK         0.0000
      3 C2         28.3800  -24.9700  -24.3360 C.2       1 UNK         0.0000
      4 C3         28.7220  -25.9300  -25.2880 C.2       1 UNK         0.0000
      5 C4         29.0900  -25.2490  -26.4360 C.2       1 UNK         0.0000
      6 C5         29.5120  -25.8280  -27.6540 C.2       1 UNK         0.0000
      7 C6         30.1000  -27.2160  -27.6650 C.3       1 UNK         0.0000
      8 O1         29.4020  -25.2070  -28.6920 O.2       1 UNK         0.0000
      9 H1         29.1690  -23.1840  -26.7920 H         1 UNK         0.0000
     10 H2         28.3540  -22.8010  -24.4140 H         1 UNK         0.0000
     11 H3         28.0470  -25.1630  -23.3270 H         1 UNK         0.0000
     12 H4         28.7050  -27.0020  -25.1550 H         1 UNK         0.0000
     13 H5         29.5130  -27.8530  -28.3260 H         1 UNK         0.0000
     14 H6         31.1290  -27.1720  -28.0210 H         1 UNK         0.0000
     15 H7         30.0820  -27.6250  -26.6550 H         1 UNK         0.0000
@<TRIPOS>BOND
     1    1    2 1
     2    1    5 1
     3    1    9 1
     4    2    3 2
     5    2   10 1
     6    3    4 1
     7    3   11 1
     8    4    5 2
     9    4   12 1
    10    5    6 1
    11    6    7 1
    12    6    8 2
    13    7   13 1
    14    7   14 1
    15    7   15 1
