@<TRIPOS>MOLECULE
Molecule from ChemDoodle Web Components
   15    15     0     0     0
SMALL
NO_CHARGES

@<TRIPOS>ATOM
      1 N1         30.7450  -32.1860  -28.9120 N.pl3     1 UNK         0.0000
      2 C1         30.4120  -31.3940  -27.8730 C.2       1 UNK         0.0000
      3 C2         30.0900  -32.1720  -26.8090 C.2       1 UNK         0.0000
      4 C3         30.2220  -33.5060  -27.1970 C.2       1 UNK         0.0000
      5 C4         30.6300  -33.5030  -28.5200 C.2       1 UNK         0.0000
      6 C5         30.8880  -34.6390  -29.3190 C.2       1 UNK         0.0000
      7 C6         32.2070  -34.7720  -30.0360 C.3       1 UNK         0.0000
      8 O1         30.0470  -35.5080  -29.4280 O.2       1 UNK         0.0000
      9 H1         31.0190  -31.8800  -29.7910 H         1 UNK         0.0000
     10 H2         30.4050  -30.3140  -27.8830 H         1 UNK         0.0000
     11 H3         29.7860  -31.8200  -25.8340 H         1 UNK         0.0000
     12 H4         30.0410  -34.3760  -26.5830 H         1 UNK         0.0000
     13 H5         32.9700  -34.2080  -29.5010 H         1 UNK         0.0000
     14 H6         32.4930  -35.8240  -30.0770 H         1 UNK         0.0000
     15 H7         32.1100  -34.3830  -31.0500 H         1 UNK         0.0000
@<TRIPOS>BOND
     1    1    2 1
     2    1    5 1
     3    1    9 1
     4    2    3 2
     5    2   10 1
     6    3    4 1
     7    3   11 1
     8    4    5 2
     9    4   12 1
    10    5    6 1
    11    6    7 1
    12    6    8 2
    13    7   13 1
    14    7   14 1
    15    7   15 1
