@<TRIPOS>MOLECULE
Molecule from ChemDoodle Web Components
   15    15     0     0     0
SMALL
NO_CHARGES

@<TRIPOS>ATOM
      1 N1         29.6080  -24.6170  -26.6300 N.pl3     1 UNK         0.0000
      2 C1         28.8690  -25.7140  -26.8920 C.2       1 UNK         0.0000
      3 C2         28.5730  -26.3380  -25.7240 C.2       1 UNK         0.0000
      4 C3         29.1540  -25.6060  -24.6880 C.2       1 UNK         0.0000
      5 C4         29.8040  -24.5300  -25.2680 C.2       1 UNK         0.0000
      6 C5         30.5280  -23.5250  -24.5890 C.2       1 UNK         0.0000
      7 C6         29.8120  -22.3110  -24.0530 C.3       1 UNK         0.0000
      8 O1         31.7280  -23.6380  -24.4370 O.2       1 UNK         0.0000
      9 H1         29.9470  -23.9920  -27.2900 H         1 UNK         0.0000
     10 H2         28.5590  -26.0410  -27.8740 H         1 UNK         0.0000
     11 H3         27.9910  -27.2420  -25.6170 H         1 UNK         0.0000
     12 H4         29.1050  -25.8350  -23.6340 H         1 UNK         0.0000
     13 H5         29.2610  -22.5830  -23.1530 H         1 UNK         0.0000
     14 H6         30.5400  -21.5360  -23.8150 H         1 UNK         0.0000
     15 H7         29.1180  -21.9380  -24.8060 H         1 UNK         0.0000
@<TRIPOS>BOND
     1    1    2 1
     2    1    5 1
     3    1    9 1
     4    2    3 2
     5    2   10 1
     6    3    4 1
     7    3   11 1
     8    4    5 2
     9    4   12 1
    10    5    6 1
    11    6    7 1
    12    6    8 2
    13    7   13 1
    14    7   14 1
    15    7   15 1
