@<TRIPOS>MOLECULE
Molecule from ChemDoodle Web Components
   15    15     0     0     0
SMALL
NO_CHARGES

@<TRIPOS>ATOM
      1 N1         42.6500  -33.3600  -19.4360 N.pl3     1 UNK         0.0000
      2 C1         43.5370  -33.7600  -18.5010 C.2       1 UNK         0.0000
      3 C2         43.4370  -32.9470  -17.4190 C.2       1 UNK         0.0000
      4 C3         42.4510  -31.9970  -17.6870 C.2       1 UNK         0.0000
      5 C4         41.9670  -32.2630  -18.9560 C.2       1 UNK         0.0000
      6 C5         40.9540  -31.5460  -19.6330 C.2       1 UNK         0.0000
      7 C6         39.5670  -31.4700  -19.0490 C.3       1 UNK         0.0000
      8 O1         41.2020  -30.9920  -20.6850 O.2       1 UNK         0.0000
      9 H1         42.5170  -33.7740  -20.3020 H         1 UNK         0.0000
     10 H2         44.2160  -34.5950  -18.5970 H         1 UNK         0.0000
     11 H3         44.0180  -33.0240  -16.5120 H         1 UNK         0.0000
     12 H4         42.1270  -31.2040  -17.0280 H         1 UNK         0.0000
     13 H5         39.2950  -30.4260  -18.8940 H         1 UNK         0.0000
     14 H6         38.8580  -31.9330  -19.7360 H         1 UNK         0.0000
     15 H7         39.5450  -31.9970  -18.0950 H         1 UNK         0.0000
@<TRIPOS>BOND
     1    1    2 1
     2    1    5 1
     3    1    9 1
     4    2    3 2
     5    2   10 1
     6    3    4 1
     7    3   11 1
     8    4    5 2
     9    4   12 1
    10    5    6 1
    11    6    7 1
    12    6    8 2
    13    7   13 1
    14    7   14 1
    15    7   15 1
