@<TRIPOS>MOLECULE
Molecule from ChemDoodle Web Components
   15    15     0     0     0
SMALL
NO_CHARGES

@<TRIPOS>ATOM
      1 N1         29.6470  -29.7830  -27.1000 N.pl3     1 UNK         0.0000
      2 C1         30.0630  -31.0630  -27.1950 C.2       1 UNK         0.0000
      3 C2         30.4140  -31.3200  -28.4810 C.2       1 UNK         0.0000
      4 C3         30.2060  -30.1570  -29.2230 C.2       1 UNK         0.0000
      5 C4         29.7210  -29.2000  -28.3470 C.2       1 UNK         0.0000
      6 C5         29.3730  -27.8690  -28.6710 C.2       1 UNK         0.0000
      7 C6         30.3890  -26.9590  -29.3120 C.3       1 UNK         0.0000
      8 O1         28.2550  -27.4590  -28.4320 O.2       1 UNK         0.0000
      9 H1         29.3440  -29.3460  -26.2890 H         1 UNK         0.0000
     10 H2         30.1120  -31.7690  -26.3790 H         1 UNK         0.0000
     11 H3         30.7890  -32.2590  -28.8600 H         1 UNK         0.0000
     12 H4         30.3890  -30.0270  -30.2790 H         1 UNK         0.0000
     13 H5         29.8870  -26.2850  -30.0050 H         1 UNK         0.0000
     14 H6         30.8930  -26.3770  -28.5400 H         1 UNK         0.0000
     15 H7         31.1220  -27.5580  -29.8520 H         1 UNK         0.0000
@<TRIPOS>BOND
     1    1    2 1
     2    1    5 1
     3    1    9 1
     4    2    3 2
     5    2   10 1
     6    3    4 1
     7    3   11 1
     8    4    5 2
     9    4   12 1
    10    5    6 1
    11    6    7 1
    12    6    8 2
    13    7   13 1
    14    7   14 1
    15    7   15 1
