@<TRIPOS>MOLECULE
Molecule from ChemDoodle Web Components
   15    15     0     0     0
SMALL
NO_CHARGES

@<TRIPOS>ATOM
      1 N1         41.9810  -32.4140  -20.1390 N.pl3     1 UNK         0.0000
      2 C1         41.1370  -31.3900  -20.3810 C.2       1 UNK         0.0000
      3 C2         40.8360  -30.7780  -19.2080 C.2       1 UNK         0.0000
      4 C3         41.5150  -31.4470  -18.1890 C.2       1 UNK         0.0000
      5 C4         42.2270  -32.4740  -18.7830 C.2       1 UNK         0.0000
      6 C5         43.0580  -33.4080  -18.1240 C.2       1 UNK         0.0000
      7 C6         43.7660  -33.0190  -16.8520 C.3       1 UNK         0.0000
      8 O1         43.2020  -34.5230  -18.5840 O.2       1 UNK         0.0000
      9 H1         42.3520  -33.0110  -20.8070 H         1 UNK         0.0000
     10 H2         40.7640  -31.1010  -21.3520 H         1 UNK         0.0000
     11 H3         40.1870  -29.9230  -19.0870 H         1 UNK         0.0000
     12 H4         41.4900  -31.2080  -17.1360 H         1 UNK         0.0000
     13 H5         43.7810  -31.9340  -16.7610 H         1 UNK         0.0000
     14 H6         43.2400  -33.4490  -15.9980 H         1 UNK         0.0000
     15 H7         44.7880  -33.3970  -16.8760 H         1 UNK         0.0000
@<TRIPOS>BOND
     1    1    2 1
     2    1    5 1
     3    1    9 1
     4    2    3 2
     5    2   10 1
     6    3    4 1
     7    3   11 1
     8    4    5 2
     9    4   12 1
    10    5    6 1
    11    6    7 1
    12    6    8 2
    13    7   13 1
    14    7   14 1
    15    7   15 1
