@<TRIPOS>MOLECULE
Molecule from ChemDoodle Web Components
   27    28     0     0     0
SMALL
NO_CHARGES

@<TRIPOS>ATOM
      1 C1         17.4230    3.0610   -2.1940 C.ar      1 UNK         0.0000
      2 C2         17.3120    3.4150   -0.8780 C.ar      1 UNK         0.0000
      3 C3         17.7080    2.5390    0.1230 C.ar      1 UNK         0.0000
      4 C4         18.2180    1.2990   -0.1890 C.ar      1 UNK         0.0000
      5 C5         18.3390    0.9170   -1.5220 C.ar      1 UNK         0.0000
      6 C6         17.9370    1.8080   -2.5330 C.ar      1 UNK         0.0000
      7 N1         18.7980   -0.2230   -2.1440 N.pl3     1 UNK         0.0000
      8 C7         18.7000   -0.0830   -3.5020 C.2       1 UNK         0.0000
      9 C8         18.1880    1.1200   -3.8020 C.2       1 UNK         0.0000
     10 C9         17.9170    1.6590   -5.1830 C.3       1 UNK         0.0000
     11 C10        16.4070    1.7730   -5.3990 C.3       1 UNK         0.0000
     12 C11        15.8770    0.4700   -5.9390 C.2       1 UNK         0.0000
     13 O1         14.6860    0.0080   -5.5270 O.3       1 UNK         0.0000
     14 O2         16.5230   -0.1600   -6.7430 O.2       1 UNK         0.0000
     15 N2         16.1300    2.8490   -6.3600 N.3       1 UNK         0.0000
     16 H1         17.1140    3.7470   -2.9680 H         1 UNK         0.0000
     17 H2         16.9130    4.3840   -0.6170 H         1 UNK         0.0000
     18 H3         17.6150    2.8330    1.1580 H         1 UNK         0.0000
     19 H4         18.5230    0.6240    0.5970 H         1 UNK         0.0000
     20 H5         19.1390   -1.0080   -1.6870 H         1 UNK         0.0000
     21 H6         18.9920   -0.8320   -4.2240 H         1 UNK         0.0000
     22 H7         18.3740    2.6420   -5.2860 H         1 UNK         0.0000
     23 H8         18.3390    0.9820   -5.9270 H         1 UNK         0.0000
     24 H9         15.9190    1.9990   -4.4510 H         1 UNK         0.0000
     25 H10        14.6180   -0.9420   -5.3560 H         1 UNK         0.0000
     26 H11        16.2760    2.5340   -7.3080 H         1 UNK         0.0000
     27 H12        15.1950    3.2100   -6.2400 H         1 UNK         0.0000
@<TRIPOS>BOND
     1    1    2 ar
     2    1    6 ar
     3    1   16 1
     4    2    3 ar
     5    2   17 1
     6    3    4 ar
     7    3   18 1
     8    4    5 ar
     9    4   19 1
    10    5    6 ar
    11    5    7 1
    12    6    9 1
    13    7    8 1
    14    7   20 1
    15    8    9 2
    16    8   21 1
    17    9   10 1
    18   10   11 1
    19   10   22 1
    20   10   23 1
    21   11   12 1
    22   11   15 1
    23   11   24 1
    24   12   13 1
    25   12   14 2
    26   13   25 1
    27   15   26 1
    28   15   27 1
