@<TRIPOS>MOLECULE
Molecule from ChemDoodle Web Components
   27    28     0     0     0
SMALL
NO_CHARGES

@<TRIPOS>ATOM
      1 C1         19.2600    1.3220    0.8410 C.ar      1 UNK         0.0000
      2 C2         19.6230    1.1070    2.1410 C.ar      1 UNK         0.0000
      3 C3         19.0140    1.8140    3.1690 C.ar      1 UNK         0.0000
      4 C4         18.0340    2.7430    2.8990 C.ar      1 UNK         0.0000
      5 C5         17.6480    2.9780    1.5830 C.ar      1 UNK         0.0000
      6 C6         18.2680    2.2600    0.5440 C.ar      1 UNK         0.0000
      7 N1         16.7250    3.8180    1.0010 N.pl3     1 UNK         0.0000
      8 C7         16.7410    3.6570   -0.3580 C.2       1 UNK         0.0000
      9 C8         17.6510    2.7310   -0.6980 C.2       1 UNK         0.0000
     10 C9         17.9790    2.2680   -2.0940 C.3       1 UNK         0.0000
     11 C10        17.2800    0.9350   -2.3670 C.3       1 UNK         0.0000
     12 C11        18.2420   -0.0080   -3.0420 C.2       1 UNK         0.0000
     13 O1         19.0550   -0.7790   -2.3020 O.3       1 UNK         0.0000
     14 O2         18.2820   -0.0710   -4.2480 O.2       1 UNK         0.0000
     15 N2         16.1210    1.1600   -3.2420 N.3       1 UNK         0.0000
     16 H1         19.7370    0.7700    0.0460 H         1 UNK         0.0000
     17 H2         20.3900    0.3830    2.3690 H         1 UNK         0.0000
     18 H3         19.3110    1.6330    4.1910 H         1 UNK         0.0000
     19 H4         17.5650    3.2870    3.7060 H         1 UNK         0.0000
     20 H5         16.1500    4.4330    1.4830 H         1 UNK         0.0000
     21 H6         16.1140    4.1960   -1.0530 H         1 UNK         0.0000
     22 H7         17.6380    3.0110   -2.8130 H         1 UNK         0.0000
     23 H8         19.0580    2.1380   -2.1890 H         1 UNK         0.0000
     24 H9         16.9440    0.5000   -1.4250 H         1 UNK         0.0000
     25 H10        20.0060   -0.6700   -2.4370 H         1 UNK         0.0000
     26 H11        16.1280    0.5200   -4.0230 H         1 UNK         0.0000
     27 H12        15.2580    1.0890   -2.7250 H         1 UNK         0.0000
@<TRIPOS>BOND
     1    1    2 ar
     2    1    6 ar
     3    1   16 1
     4    2    3 ar
     5    2   17 1
     6    3    4 ar
     7    3   18 1
     8    4    5 ar
     9    4   19 1
    10    5    6 ar
    11    5    7 1
    12    6    9 1
    13    7    8 1
    14    7   20 1
    15    8    9 2
    16    8   21 1
    17    9   10 1
    18   10   11 1
    19   10   22 1
    20   10   23 1
    21   11   12 1
    22   11   15 1
    23   11   24 1
    24   12   13 1
    25   12   14 2
    26   13   25 1
    27   15   26 1
    28   15   27 1
