@<TRIPOS>MOLECULE
Molecule from ChemDoodle Web Components
   27    28     0     0     0
SMALL
NO_CHARGES

@<TRIPOS>ATOM
      1 C1         18.9970  -18.4710    0.2930 C.ar      1 UNK         0.0000
      2 C2         20.0410  -19.2190   -0.1740 C.ar      1 UNK         0.0000
      3 C3         20.0360  -19.7030   -1.4750 C.ar      1 UNK         0.0000
      4 C4         18.9800  -19.4380   -2.3190 C.ar      1 UNK         0.0000
      5 C5         17.9060  -18.6780   -1.8650 C.ar      1 UNK         0.0000
      6 C6         17.9160  -18.1910   -0.5460 C.ar      1 UNK         0.0000
      7 N1         16.7330  -18.2520   -2.4470 N.pl3     1 UNK         0.0000
      8 C7         16.0080  -17.5180   -1.5480 C.2       1 UNK         0.0000
      9 C8         16.6670  -17.4430   -0.3810 C.2       1 UNK         0.0000
     10 C9         16.2050  -16.7310    0.8640 C.3       1 UNK         0.0000
     11 C10        15.3610  -17.6830    1.7130 C.3       1 UNK         0.0000
     12 C11        14.2530  -16.9120    2.3820 C.2       1 UNK         0.0000
     13 O1         14.5460  -15.9650    3.2870 O.3       1 UNK         0.0000
     14 O2         13.1000  -17.1450    2.1040 O.2       1 UNK         0.0000
     15 N2         16.2090  -18.3080    2.7370 N.3       1 UNK         0.0000
     16 H1         19.0080  -18.0980    1.3060 H         1 UNK         0.0000
     17 H2         20.8760  -19.4360    0.4760 H         1 UNK         0.0000
     18 H3         20.8680  -20.2920   -1.8300 H         1 UNK         0.0000
     19 H4         18.9850  -19.8180   -3.3300 H         1 UNK         0.0000
     20 H5         16.4620  -18.4430   -3.3580 H         1 UNK         0.0000
     21 H6         15.0480  -17.0660   -1.7480 H         1 UNK         0.0000
     22 H7         17.0710  -16.4040    1.4380 H         1 UNK         0.0000
     23 H8         15.6050  -15.8640    0.5860 H         1 UNK         0.0000
     24 H9         14.9330  -18.4570    1.0760 H         1 UNK         0.0000
     25 H10        15.3530  -15.4530    3.1400 H         1 UNK         0.0000
     26 H11        15.6900  -18.4670    3.5890 H         1 UNK         0.0000
     27 H12        16.6140  -19.1670    2.3970 H         1 UNK         0.0000
@<TRIPOS>BOND
     1    1    2 ar
     2    1    6 ar
     3    1   16 1
     4    2    3 ar
     5    2   17 1
     6    3    4 ar
     7    3   18 1
     8    4    5 ar
     9    4   19 1
    10    5    6 ar
    11    5    7 1
    12    6    9 1
    13    7    8 1
    14    7   20 1
    15    8    9 2
    16    8   21 1
    17    9   10 1
    18   10   11 1
    19   10   22 1
    20   10   23 1
    21   11   12 1
    22   11   15 1
    23   11   24 1
    24   12   13 1
    25   12   14 2
    26   13   25 1
    27   15   26 1
    28   15   27 1
