@<TRIPOS>MOLECULE
Molecule from ChemDoodle Web Components
   27    28     0     0     0
SMALL
NO_CHARGES

@<TRIPOS>ATOM
      1 C1         19.4930    0.5520   -5.3150 C.ar      1 UNK         0.0000
      2 C2         20.7670    0.2280   -5.6900 C.ar      1 UNK         0.0000
      3 C3         21.8550    0.6940   -4.9660 C.ar      1 UNK         0.0000
      4 C4         21.6730    1.4920   -3.8580 C.ar      1 UNK         0.0000
      5 C5         20.3850    1.8350   -3.4580 C.ar      1 UNK         0.0000
      6 C6         19.2850    1.3600   -4.1950 C.ar      1 UNK         0.0000
      7 N1         19.8840    2.5950   -2.4250 N.pl3     1 UNK         0.0000
      8 C7         18.5170    2.6160   -2.4830 C.2       1 UNK         0.0000
      9 C8         18.0920    1.8900   -3.5290 C.2       1 UNK         0.0000
     10 C9         16.6610    1.6670   -3.9430 C.3       1 UNK         0.0000
     11 C10        16.2160    0.2690   -3.5100 C.3       1 UNK         0.0000
     12 C11        15.0460   -0.1700   -4.3520 C.2       1 UNK         0.0000
     13 O1         14.0340   -0.8500   -3.7900 O.3       1 UNK         0.0000
     14 O2         15.0180    0.0900   -5.5320 O.2       1 UNK         0.0000
     15 N2         15.8180    0.2980   -2.0960 N.3       1 UNK         0.0000
     16 H1         18.6510    0.1860   -5.8830 H         1 UNK         0.0000
     17 H2         20.9260   -0.3960   -6.5570 H         1 UNK         0.0000
     18 H3         22.8560    0.4290   -5.2740 H         1 UNK         0.0000
     19 H4         22.5260    1.8490   -3.3010 H         1 UNK         0.0000
     20 H5         20.4200    3.0480   -1.7550 H         1 UNK         0.0000
     21 H6         17.8750    3.1400   -1.7900 H         1 UNK         0.0000
     22 H7         16.0250    2.4130   -3.4690 H         1 UNK         0.0000
     23 H8         16.5790    1.7540   -5.0270 H         1 UNK         0.0000
     24 H9         17.0410   -0.4320   -3.6400 H         1 UNK         0.0000
     25 H10        14.1330   -1.8090   -3.7240 H         1 UNK         0.0000
     26 H11        16.2430   -0.4630   -1.5850 H         1 UNK         0.0000
     27 H12        16.0440    1.1860   -1.6750 H         1 UNK         0.0000
@<TRIPOS>BOND
     1    1    2 ar
     2    1    6 ar
     3    1   16 1
     4    2    3 ar
     5    2   17 1
     6    3    4 ar
     7    3   18 1
     8    4    5 ar
     9    4   19 1
    10    5    6 ar
    11    5    7 1
    12    6    9 1
    13    7    8 1
    14    7   20 1
    15    8    9 2
    16    8   21 1
    17    9   10 1
    18   10   11 1
    19   10   22 1
    20   10   23 1
    21   11   12 1
    22   11   15 1
    23   11   24 1
    24   12   13 1
    25   12   14 2
    26   13   25 1
    27   15   26 1
    28   15   27 1
