@<TRIPOS>MOLECULE
Molecule from ChemDoodle Web Components
   27    28     0     0     0
SMALL
NO_CHARGES

@<TRIPOS>ATOM
      1 C1         15.8760    0.7720   -4.1070 C.ar      1 UNK         0.0000
      2 C2         15.8370    0.2690   -5.3770 C.ar      1 UNK         0.0000
      3 C3         16.9550   -0.3410   -5.9290 C.ar      1 UNK         0.0000
      4 C4         18.1230   -0.4510   -5.2070 C.ar      1 UNK         0.0000
      5 C5         18.1860    0.0530   -3.9120 C.ar      1 UNK         0.0000
      6 C6         17.0510    0.6710   -3.3570 C.ar      1 UNK         0.0000
      7 N1         19.1790    0.0980   -2.9590 N.pl3     1 UNK         0.0000
      8 C7         18.7140    0.7180   -1.8310 C.2       1 UNK         0.0000
      9 C8         17.4350    1.0880   -2.0070 C.2       1 UNK         0.0000
     10 C9         16.5640    1.8010   -1.0060 C.3       1 UNK         0.0000
     11 C10        17.1730    3.1670   -0.6810 C.3       1 UNK         0.0000
     12 C11        16.5510    3.7070    0.5800 C.2       1 UNK         0.0000
     13 O1         17.2570    3.7250    1.7220 O.3       1 UNK         0.0000
     14 O2         15.4170    4.1250    0.5650 O.2       1 UNK         0.0000
     15 N2         16.9140    4.0940   -1.7910 N.3       1 UNK         0.0000
     16 H1         15.0030    1.2450   -3.6840 H         1 UNK         0.0000
     17 H2         14.9290    0.3490   -5.9560 H         1 UNK         0.0000
     18 H3         16.9090   -0.7340   -6.9340 H         1 UNK         0.0000
     19 H4         18.9880   -0.9280   -5.6450 H         1 UNK         0.0000
     20 H5         20.0750   -0.2570   -3.0710 H         1 UNK         0.0000
     21 H6         19.2900    0.8840   -0.9330 H         1 UNK         0.0000
     22 H7         15.5670    1.9380   -1.4240 H         1 UNK         0.0000
     23 H8         16.4980    1.2080   -0.0930 H         1 UNK         0.0000
     24 H9         18.2490    3.0610   -0.5410 H         1 UNK         0.0000
     25 H10        18.1020    3.2530    1.7230 H         1 UNK         0.0000
     26 H11        16.8230    5.0430   -1.4560 H         1 UNK         0.0000
     27 H12        17.6340    4.0280   -2.4940 H         1 UNK         0.0000
@<TRIPOS>BOND
     1    1    2 ar
     2    1    6 ar
     3    1   16 1
     4    2    3 ar
     5    2   17 1
     6    3    4 ar
     7    3   18 1
     8    4    5 ar
     9    4   19 1
    10    5    6 ar
    11    5    7 1
    12    6    9 1
    13    7    8 1
    14    7   20 1
    15    8    9 2
    16    8   21 1
    17    9   10 1
    18   10   11 1
    19   10   22 1
    20   10   23 1
    21   11   12 1
    22   11   15 1
    23   11   24 1
    24   12   13 1
    25   12   14 2
    26   13   25 1
    27   15   26 1
    28   15   27 1
