@<TRIPOS>MOLECULE
Molecule from ChemDoodle Web Components
   27    28     0     0     0
SMALL
NO_CHARGES

@<TRIPOS>ATOM
      1 C1         16.5460    1.8560    5.5490 C.ar      1 UNK         0.0000
      2 C2         15.5030    2.6800    5.8670 C.ar      1 UNK         0.0000
      3 C3         15.1960    3.7700    5.0640 C.ar      1 UNK         0.0000
      4 C4         15.9350    4.0420    3.9340 C.ar      1 UNK         0.0000
      5 C5         17.0020    3.2160    3.5910 C.ar      1 UNK         0.0000
      6 C6         17.3100    2.1130    4.4080 C.ar      1 UNK         0.0000
      7 N1         17.9090    3.2200    2.5550 N.pl3     1 UNK         0.0000
      8 C7         18.7710    2.1650    2.6880 C.2       1 UNK         0.0000
      9 C8         18.4640    1.4580    3.7870 C.2       1 UNK         0.0000
     10 C9         19.1740    0.2280    4.2890 C.3       1 UNK         0.0000
     11 C10        20.4220    0.6430    5.0710 C.3       1 UNK         0.0000
     12 C11        21.6350   -0.0220    4.4730 C.2       1 UNK         0.0000
     13 O1         21.4940   -0.8710    3.4430 O.3       1 UNK         0.0000
     14 O2         22.7340    0.2100    4.9200 O.2       1 UNK         0.0000
     15 N2         20.2800    0.2300    6.4730 N.3       1 UNK         0.0000
     16 H1         16.7800    1.0110    6.1780 H         1 UNK         0.0000
     17 H2         14.9140    2.4820    6.7500 H         1 UNK         0.0000
     18 H3         14.3680    4.4120    5.3270 H         1 UNK         0.0000
     19 H4         15.6880    4.8910    3.3150 H         1 UNK         0.0000
     20 H5         17.9330    3.8720    1.8380 H         1 UNK         0.0000
     21 H6         19.5800    1.9370    2.0100 H         1 UNK         0.0000
     22 H7         18.5080   -0.3360    4.9400 H         1 UNK         0.0000
     23 H8         19.4680   -0.3930    3.4410 H         1 UNK         0.0000
     24 H9         20.5390    1.7260    5.0220 H         1 UNK         0.0000
     25 H10        21.8030   -1.7770    3.5760 H         1 UNK         0.0000
     26 H11        20.5390   -0.7380    6.5930 H         1 UNK         0.0000
     27 H12        20.8190    0.8260    7.0830 H         1 UNK         0.0000
@<TRIPOS>BOND
     1    1    2 ar
     2    1    6 ar
     3    1   16 1
     4    2    3 ar
     5    2   17 1
     6    3    4 ar
     7    3   18 1
     8    4    5 ar
     9    4   19 1
    10    5    6 ar
    11    5    7 1
    12    6    9 1
    13    7    8 1
    14    7   20 1
    15    8    9 2
    16    8   21 1
    17    9   10 1
    18   10   11 1
    19   10   22 1
    20   10   23 1
    21   11   12 1
    22   11   15 1
    23   11   24 1
    24   12   13 1
    25   12   14 2
    26   13   25 1
    27   15   26 1
    28   15   27 1
