@<TRIPOS>MOLECULE
Molecule from ChemDoodle Web Components
   27    28     0     0     0
SMALL
NO_CHARGES

@<TRIPOS>ATOM
      1 C1         16.4880    3.5980    3.7820 C.ar      1 UNK         0.0000
      2 C2         15.5030    3.7800    4.7110 C.ar      1 UNK         0.0000
      3 C3         15.3900    2.9210    5.7970 C.ar      1 UNK         0.0000
      4 C4         16.2680    1.8720    5.9570 C.ar      1 UNK         0.0000
      5 C5         17.2790    1.6680    5.0230 C.ar      1 UNK         0.0000
      6 C6         17.3890    2.5410    3.9250 C.ar      1 UNK         0.0000
      7 N1         18.2850    0.7360    4.9030 N.pl3     1 UNK         0.0000
      8 C7         19.0220    0.9880    3.7770 C.2       1 UNK         0.0000
      9 C8         18.5320    2.0640    3.1420 C.2       1 UNK         0.0000
     10 C9         19.0550    2.6640    1.8630 C.3       1 UNK         0.0000
     11 C10        18.0780    2.3680    0.7230 C.3       1 UNK         0.0000
     12 C11        18.7480    1.4830   -0.2960 C.2       1 UNK         0.0000
     13 O1         19.0440    0.2110    0.0120 O.3       1 UNK         0.0000
     14 O2         19.0170    1.9180   -1.3910 O.2       1 UNK         0.0000
     15 N2         17.6740    3.6280    0.0860 N.3       1 UNK         0.0000
     16 H1         16.5710    4.2700    2.9410 H         1 UNK         0.0000
     17 H2         14.8060    4.5970    4.5990 H         1 UNK         0.0000
     18 H3         14.6060    3.0780    6.5230 H         1 UNK         0.0000
     19 H4         16.1720    1.2100    6.8050 H         1 UNK         0.0000
     20 H5         18.4490    0.0100    5.5250 H         1 UNK         0.0000
     21 H6         19.8700    0.4060    3.4490 H         1 UNK         0.0000
     22 H7         19.1590    3.7410    1.9820 H         1 UNK         0.0000
     23 H8         20.0280    2.2280    1.6280 H         1 UNK         0.0000
     24 H9         17.1970    1.8640    1.1210 H         1 UNK         0.0000
     25 H10        19.7060    0.0690    0.7030 H         1 UNK         0.0000
     26 H11        17.9830    4.4230    0.6270 H         1 UNK         0.0000
     27 H12        18.0170    3.6820   -0.8610 H         1 UNK         0.0000
@<TRIPOS>BOND
     1    1    2 ar
     2    1    6 ar
     3    1   16 1
     4    2    3 ar
     5    2   17 1
     6    3    4 ar
     7    3   18 1
     8    4    5 ar
     9    4   19 1
    10    5    6 ar
    11    5    7 1
    12    6    9 1
    13    7    8 1
    14    7   20 1
    15    8    9 2
    16    8   21 1
    17    9   10 1
    18   10   11 1
    19   10   22 1
    20   10   23 1
    21   11   12 1
    22   11   15 1
    23   11   24 1
    24   12   13 1
    25   12   14 2
    26   13   25 1
    27   15   26 1
    28   15   27 1
