@<TRIPOS>MOLECULE
Molecule from ChemDoodle Web Components
   27    28     0     0     0
SMALL
NO_CHARGES

@<TRIPOS>ATOM
      1 C1         16.6160  -17.8570   -0.8520 C.ar      1 UNK         0.0000
      2 C2         16.9050  -17.6910    0.4730 C.ar      1 UNK         0.0000
      3 C3         18.1420  -18.0690    0.9780 C.ar      1 UNK         0.0000
      4 C4         19.0990  -18.6170    0.1540 C.ar      1 UNK         0.0000
      5 C5         18.8270  -18.7960   -1.1990 C.ar      1 UNK         0.0000
      6 C6         17.5720  -18.4120   -1.7060 C.ar      1 UNK         0.0000
      7 N1         19.5520  -19.3030   -2.2530 N.pl3     1 UNK         0.0000
      8 C7         18.8060  -19.2530   -3.3990 C.2       1 UNK         0.0000
      9 C8         17.6000  -18.7250   -3.1370 C.2       1 UNK         0.0000
     10 C9         16.4850  -18.5030   -4.1250 C.3       1 UNK         0.0000
     11 C10        16.8560  -17.3540   -5.0640 C.3       1 UNK         0.0000
     12 C11        17.0770  -16.0990   -4.2590 C.2       1 UNK         0.0000
     13 O1         16.0260  -15.4010   -3.8030 O.3       1 UNK         0.0000
     14 O2         18.2010  -15.7210   -4.0250 O.2       1 UNK         0.0000
     15 N2         15.7650  -17.1340   -6.0230 N.3       1 UNK         0.0000
     16 H1         15.6530  -17.5610   -1.2380 H         1 UNK         0.0000
     17 H2         16.1650  -17.2630    1.1330 H         1 UNK         0.0000
     18 H3         18.3560  -17.9310    2.0270 H         1 UNK         0.0000
     19 H4         20.0590  -18.9080    0.5560 H         1 UNK         0.0000
     20 H5         20.4580  -19.6450   -2.1930 H         1 UNK         0.0000
     21 H6         19.1380  -19.5880   -4.3700 H         1 UNK         0.0000
     22 H7         16.3280  -19.4110   -4.7060 H         1 UNK         0.0000
     23 H8         15.5690  -18.2510   -3.5880 H         1 UNK         0.0000
     24 H9         17.7680  -17.6050   -5.6050 H         1 UNK         0.0000
     25 H10        15.7300  -14.6520   -4.3390 H         1 UNK         0.0000
     26 H11        15.2190  -17.9740   -6.1490 H         1 UNK         0.0000
     27 H12        15.1800  -16.3630   -5.7360 H         1 UNK         0.0000
@<TRIPOS>BOND
     1    1    2 ar
     2    1    6 ar
     3    1   16 1
     4    2    3 ar
     5    2   17 1
     6    3    4 ar
     7    3   18 1
     8    4    5 ar
     9    4   19 1
    10    5    6 ar
    11    5    7 1
    12    6    9 1
    13    7    8 1
    14    7   20 1
    15    8    9 2
    16    8   21 1
    17    9   10 1
    18   10   11 1
    19   10   22 1
    20   10   23 1
    21   11   12 1
    22   11   15 1
    23   11   24 1
    24   12   13 1
    25   12   14 2
    26   13   25 1
    27   15   26 1
    28   15   27 1
