@<TRIPOS>MOLECULE
Molecule from ChemDoodle Web Components
   27    28     0     0     0
SMALL
NO_CHARGES

@<TRIPOS>ATOM
      1 C1         15.4350  -17.2320    0.0980 C.ar      1 UNK         0.0000
      2 C2         15.1320  -16.9810    1.4070 C.ar      1 UNK         0.0000
      3 C3         16.0290  -17.3110    2.4140 C.ar      1 UNK         0.0000
      4 C4         17.2390  -17.8950    2.1130 C.ar      1 UNK         0.0000
      5 C5         17.5690  -18.1600    0.7870 C.ar      1 UNK         0.0000
      6 C6         16.6570  -17.8240   -0.2290 C.ar      1 UNK         0.0000
      7 N1         18.6680  -18.7210    0.1780 N.pl3     1 UNK         0.0000
      8 C7         18.4840  -18.7500   -1.1780 C.2       1 UNK         0.0000
      9 C8         17.2890  -18.2240   -1.4890 C.2       1 UNK         0.0000
     10 C9         16.7070  -18.0780   -2.8710 C.3       1 UNK         0.0000
     11 C10        17.8070  -17.6540   -3.8460 C.3       1 UNK         0.0000
     12 C11        17.3520  -16.4450   -4.6210 C.2       1 UNK         0.0000
     13 O1         16.9990  -15.3250   -3.9710 O.3       1 UNK         0.0000
     14 O2         17.3070  -16.4830   -5.8290 O.2       1 UNK         0.0000
     15 N2         18.0860  -18.7560   -4.7770 N.3       1 UNK         0.0000
     16 H1         14.7330  -16.9730   -0.6800 H         1 UNK         0.0000
     17 H2         14.1870  -16.5240    1.6590 H         1 UNK         0.0000
     18 H3         15.7760  -17.1060    3.4440 H         1 UNK         0.0000
     19 H4         17.9300  -18.1480    2.9040 H         1 UNK         0.0000
     20 H5         19.4570  -19.0460    0.6400 H         1 UNK         0.0000
     21 H6         19.1950  -19.1400   -1.8910 H         1 UNK         0.0000
     22 H7         16.2850  -19.0300   -3.1900 H         1 UNK         0.0000
     23 H8         15.9230  -17.3190   -2.8560 H         1 UNK         0.0000
     24 H9         18.7130  -17.4110   -3.2900 H         1 UNK         0.0000
     25 H10        16.1450  -15.3320   -3.5170 H         1 UNK         0.0000
     26 H11        18.9180  -19.2580   -4.5040 H         1 UNK         0.0000
     27 H12        17.2960  -19.3790   -4.8480 H         1 UNK         0.0000
@<TRIPOS>BOND
     1    1    2 ar
     2    1    6 ar
     3    1   16 1
     4    2    3 ar
     5    2   17 1
     6    3    4 ar
     7    3   18 1
     8    4    5 ar
     9    4   19 1
    10    5    6 ar
    11    5    7 1
    12    6    9 1
    13    7    8 1
    14    7   20 1
    15    8    9 2
    16    8   21 1
    17    9   10 1
    18   10   11 1
    19   10   22 1
    20   10   23 1
    21   11   12 1
    22   11   15 1
    23   11   24 1
    24   12   13 1
    25   12   14 2
    26   13   25 1
    27   15   26 1
    28   15   27 1
