@<TRIPOS>MOLECULE
Molecule from ChemDoodle Web Components
   27    28     0     0     0
SMALL
NO_CHARGES

@<TRIPOS>ATOM
      1 C1         16.9660  -17.2760   -2.7160 C.ar      1 UNK         0.0000
      2 C2         17.5370  -17.5700   -3.9220 C.ar      1 UNK         0.0000
      3 C3         18.3250  -18.7030   -4.0720 C.ar      1 UNK         0.0000
      4 C4         18.5460  -19.5510   -3.0100 C.ar      1 UNK         0.0000
      5 C5         17.9740  -19.2720   -1.7720 C.ar      1 UNK         0.0000
      6 C6         17.1770  -18.1220   -1.6250 C.ar      1 UNK         0.0000
      7 N1         18.0050  -19.9040   -0.5500 N.pl3     1 UNK         0.0000
      8 C7         17.2590  -19.2000    0.3570 C.2       1 UNK         0.0000
      9 C8         16.7330  -18.1130   -0.2290 C.2       1 UNK         0.0000
     10 C9         15.8570  -17.0780    0.4270 C.3       1 UNK         0.0000
     11 C10        15.2180  -17.6720    1.6840 C.3       1 UNK         0.0000
     12 C11        13.9590  -16.9130    2.0150 C.2       1 UNK         0.0000
     13 O1         14.0310  -15.7620    2.7010 O.3       1 UNK         0.0000
     14 O2         12.8850  -17.3410    1.6620 O.2       1 UNK         0.0000
     15 N2         16.1610  -17.5680    2.8060 N.3       1 UNK         0.0000
     16 H1         16.3540  -16.3940   -2.6060 H         1 UNK         0.0000
     17 H2         17.3740  -16.9140   -4.7650 H         1 UNK         0.0000
     18 H3         18.7690  -18.9220   -5.0320 H         1 UNK         0.0000
     19 H4         19.1600  -20.4300   -3.1370 H         1 UNK         0.0000
     20 H5         18.4830  -20.7260   -0.3590 H         1 UNK         0.0000
     21 H6         17.1170  -19.4780    1.3910 H         1 UNK         0.0000
     22 H7         16.4580  -16.2120    0.6990 H         1 UNK         0.0000
     23 H8         15.0730  -16.7730   -0.2680 H         1 UNK         0.0000
     24 H9         14.9770  -18.7200    1.5100 H         1 UNK         0.0000
     25 H10        13.8710  -14.9460    2.2080 H         1 UNK         0.0000
     26 H11        16.7040  -16.7180    2.7460 H         1 UNK         0.0000
     27 H12        15.6790  -17.6250    3.6910 H         1 UNK         0.0000
@<TRIPOS>BOND
     1    1    2 ar
     2    1    6 ar
     3    1   16 1
     4    2    3 ar
     5    2   17 1
     6    3    4 ar
     7    3   18 1
     8    4    5 ar
     9    4   19 1
    10    5    6 ar
    11    5    7 1
    12    6    9 1
    13    7    8 1
    14    7   20 1
    15    8    9 2
    16    8   21 1
    17    9   10 1
    18   10   11 1
    19   10   22 1
    20   10   23 1
    21   11   12 1
    22   11   15 1
    23   11   24 1
    24   12   13 1
    25   12   14 2
    26   13   25 1
    27   15   26 1
    28   15   27 1
